demo/texas7k/Texas2k_series24_case3_2024summerpeak.m
% Case saved by PowerWorld Simulator, version 23, build date October 25, 2023
% Case Information Header = 9 lines
% Texas2k_series24_case3_2024summerpeak
% This is a synthetic power system model that does NOT represent the actual grid. 
% It was developed at Texas A&M University and contains no CEII.
% [1] A.B. Birchfield, T. Xu, K.M. Gegner, K.S. Shetye, and T.J. Overbye,
%  "Grid Structural Characteristics as Validation Criteria for Synthetic Networks,"
%  IEEE Transactions on Power Systems, vol. 32, no. 4, pp. 3258-3265, July 2017.
% [2] J. Baek and A. B. Birchfield, “A tuning method for exciters and governors 
%  in realistic synthetic grids with dynamics,” 2023 North American Power 
%  Symposium (NAPS), Asheville, NC, USA, Oct. 2023, pp. 1-6.
function mpc = Texas2k_series24_case3_2024summerpeak
mpc.version = '2';
mpc.baseMVA =  100.00;

%% bus data 
mpc.bus = [
1001	1	27.12	5.89	0.00	0.00	1	0.9474901	8.922119	115.00	9	1.100	0.900	18.66	-0.00	0	0
1002	1	20.12	4.37	0.00	0.00	1	1.0256969	36.658417	115.00	9	1.100	0.900	18.66	0.00	0	0
1003	1	0.00	0.00	0.00	0.00	1	0.9910069	16.210199	115.00	9	1.100	0.900	18.66	-0.00	0	0
1004	2	0.00	0.00	0.00	0.00	1	0.9844434	7.469786	230.00	9	1.100	0.900	18.66	-0.00	0	0
1005	1	0.00	0.00	0.00	0.00	1	0.9942339	20.747184	115.00	9	1.100	0.900	18.66	-0.00	0	0
1006	2	0.00	0.00	0.00	0.00	1	1.0000000	21.825413	13.80	9	1.100	0.900	18.66	-0.00	0	0
1007	2	9.15	1.99	0.00	-0.79	1	1.0298294	42.357272	115.00	9	1.100	0.900	18.66	0.00	0	0
1008	1	0.00	0.00	0.00	0.00	1	0.9868578	25.631970	115.00	9	1.100	0.900	18.66	-0.00	0	0
1009	2	0.00	0.00	0.00	0.00	1	1.0000000	29.002424	13.80	9	1.100	0.900	18.66	-0.00	0	0
1010	1	0.00	0.00	0.00	4.01	1	1.0300000	36.413941	115.00	9	1.100	0.900	18.66	0.00	0	0
1011	2	0.00	0.00	0.00	0.00	1	1.0302178	38.166904	22.00	9	1.100	0.900	18.66	-0.00	0	0
1012	1	3.90	0.85	0.00	9.50	1	0.9676016	10.399152	115.00	9	1.100	0.900	18.66	-0.00	0	0
1013	1	38.14	8.28	0.00	0.00	1	0.9891336	26.332916	115.00	9	1.100	0.900	18.66	-0.00	0	0
1014	1	2.90	0.63	0.00	0.00	1	0.9913184	26.786242	115.00	9	1.100	0.900	18.66	-0.00	0	0
1015	1	9.80	2.13	0.00	0.00	1	1.0299495	38.081212	115.00	9	1.100	0.900	18.66	0.00	0	0
1016	2	3.77	0.82	0.00	30.00	1	1.0000000	26.838903	115.00	9	1.100	0.900	18.66	0.00	0	0
1017	1	23.94	5.20	0.00	0.00	1	0.9636428	15.587885	115.00	9	1.100	0.900	18.66	-0.00	0	0
1018	1	0.09	0.02	0.00	0.00	1	0.9781315	17.252802	115.00	9	1.100	0.900	18.66	-0.00	0	0
1019	1	80.62	17.50	0.00	142.98	1	0.9656856	11.485848	115.00	9	1.100	0.900	18.66	0.00	0	0
1020	1	0.00	0.00	0.00	76.73	1	0.9838852	15.365043	115.00	9	1.100	0.900	18.66	-0.00	0	0
1021	2	0.00	0.00	0.00	0.00	1	1.0000000	18.733048	13.80	9	1.100	0.900	18.66	-0.00	0	0
1022	2	0.00	0.00	0.00	0.00	1	0.9975143	17.367767	115.00	9	1.100	0.900	18.66	-0.00	0	0
1023	2	0.00	0.00	0.00	0.00	1	1.0100000	25.855619	13.80	9	1.100	0.900	18.66	0.00	0	0
1024	1	82.27	17.86	0.00	0.00	1	0.9843205	18.652745	115.00	9	1.100	0.900	18.66	-0.00	0	0
1025	1	0.00	0.00	0.00	0.00	1	0.9870187	16.999413	115.00	9	1.100	0.900	18.66	-0.00	0	0
1026	2	0.00	0.00	0.00	0.00	1	1.0000000	26.773144	13.80	9	1.100	0.900	18.66	0.00	0	0
1027	2	132.08	28.68	0.00	75.00	1	0.9915552	11.697822	115.00	9	1.100	0.900	18.66	0.00	0	0
1028	2	13.07	2.84	0.00	0.00	1	1.0000000	12.741318	115.00	9	1.100	0.900	18.66	-0.00	0	0
1029	2	108.56	23.57	0.00	40.00	1	1.0000000	13.648402	115.00	9	1.100	0.900	18.66	0.00	0	0
1030	2	32.14	6.98	0.00	0.00	1	1.0064679	31.976422	115.00	9	1.100	0.900	18.66	-0.00	0	0
1031	1	12.07	2.62	0.00	0.00	1	1.0020824	34.099882	115.00	9	1.100	0.900	18.66	-0.00	0	0
1032	2	0.00	0.00	0.00	0.00	1	0.9611907	23.769395	115.00	9	1.100	0.900	18.66	-0.00	0	0
1033	2	0.00	0.00	0.00	50.00	1	0.9628177	20.009895	230.00	9	1.100	0.900	18.66	-0.00	0	0
1034	1	0.00	0.00	0.00	0.00	1	0.9982248	23.392824	115.00	9	1.100	0.900	18.66	-0.00	0	0
1035	2	0.00	0.00	0.00	0.00	1	1.0000000	26.684898	13.80	9	1.100	0.900	18.66	0.00	0	0
1036	2	17.74	3.85	0.00	0.00	1	0.9759660	27.708052	115.00	9	1.100	0.900	18.66	-0.00	0	0
1037	2	133.42	28.97	0.00	0.00	1	0.9556815	13.353171	115.00	9	1.100	0.900	18.66	-0.00	0	0
1038	1	0.00	0.00	0.00	0.00	1	0.9912701	28.962597	115.00	9	1.100	0.900	18.66	-0.00	0	0
1039	2	0.00	0.00	0.00	0.00	1	1.0000000	34.449516	22.00	9	1.100	0.900	18.66	0.00	0	0
1040	2	57.89	12.57	0.00	0.00	1	1.0000000	20.308630	115.00	9	1.100	0.900	18.66	-0.00	0	0
1041	1	0.00	0.00	0.00	0.00	1	1.0006016	22.536564	115.00	9	1.100	0.900	18.66	-0.00	0	0
1042	2	0.00	0.00	0.00	0.00	1	1.0006016	22.536564	13.80	9	1.100	0.900	18.66	-0.00	0	0
1043	2	0.00	0.00	0.00	0.00	1	1.0000000	25.782126	13.80	9	1.100	0.900	18.66	0.00	0	0
1044	2	19.16	4.16	0.00	0.00	1	1.0000000	8.180540	115.00	9	1.100	0.900	18.66	-0.00	0	0
1045	1	128.62	27.93	0.00	0.00	1	0.9495885	9.641848	115.00	9	1.100	0.900	18.66	-0.00	0	0
1046	2	14.47	3.14	0.00	12.00	1	1.0000000	20.585188	115.00	9	1.100	0.900	18.66	-0.00	0	0
1047	1	0.00	0.00	0.00	0.00	1	0.9864340	22.578591	115.00	9	1.100	0.900	18.66	-0.00	0	0
1048	2	0.00	0.00	0.00	0.00	1	0.9864340	22.578591	18.00	9	1.100	0.900	18.66	-0.00	0	0
1049	2	0.00	0.00	0.00	0.00	1	0.9864340	22.578591	18.00	9	1.100	0.900	18.66	-0.00	0	0
1050	2	0.00	0.00	0.00	0.00	1	1.0000000	25.136417	18.00	9	1.100	0.900	18.66	0.00	0	0
1051	2	0.00	0.00	0.00	0.00	1	1.0000000	25.879330	18.00	9	1.100	0.900	18.66	0.00	0	0
1052	2	0.00	0.00	0.00	0.00	1	1.0000000	24.691066	18.00	9	1.100	0.900	18.66	-0.00	0	0
1053	2	0.00	0.00	0.00	0.00	1	0.9718674	17.865895	230.00	9	1.100	0.900	18.66	-0.00	0	0
1054	1	19.56	4.25	0.00	0.00	1	1.0003900	16.220463	115.00	9	1.100	0.900	18.66	-0.00	0	0
1055	2	5.19	1.13	0.00	0.00	1	1.0000000	17.175716	115.00	9	1.100	0.900	18.66	-0.00	0	0
1056	1	0.00	0.00	0.00	80.00	1	1.0132107	15.521987	115.00	9	1.100	0.900	18.66	0.00	0	0
1057	2	0.00	0.00	0.00	0.00	1	1.0132107	15.521987	18.00	9	1.100	0.900	18.66	0.00	0	0
1058	1	17.56	3.81	0.00	0.00	1	0.9947572	23.480597	115.00	9	1.100	0.900	18.66	-0.00	0	0
1059	2	0.00	0.00	0.00	0.00	1	0.9947572	23.480597	22.00	9	1.100	0.900	18.66	-0.00	0	0
1060	2	0.00	0.00	0.00	0.00	1	0.9947572	23.480597	22.00	9	1.100	0.900	18.66	-0.00	0	0
1061	2	0.00	0.00	0.00	0.00	1	1.0000000	19.478428	115.00	9	1.100	0.900	18.66	-0.00	0	0
1062	2	0.00	0.00	0.00	0.00	1	1.0100000	21.820274	13.80	9	1.100	0.900	18.66	-0.00	0	0
1063	2	0.00	0.00	0.00	0.00	1	1.0100000	22.553543	13.80	9	1.100	0.900	18.66	-0.00	0	0
1064	1	161.51	35.07	0.00	0.00	1	0.9404693	7.929924	115.00	9	1.100	0.900	18.66	-0.00	0	0
1065	1	0.00	0.00	0.00	0.00	1	1.0024718	22.673655	115.00	9	1.100	0.900	18.66	-0.00	0	0
1066	2	0.00	0.00	0.00	0.00	1	1.0000000	30.216432	13.80	9	1.100	0.900	18.66	0.00	0	0
1067	1	132.52	28.77	0.00	0.00	1	0.9977695	21.991468	115.00	9	1.100	0.900	18.66	-0.00	0	0
1068	1	77.52	16.83	0.00	0.00	1	0.9703709	23.928458	115.00	9	1.100	0.900	18.66	-0.00	0	0
1069	1	0.00	0.00	0.00	0.00	1	0.9970610	26.277007	115.00	9	1.100	0.900	18.66	-0.00	0	0
1070	2	0.00	0.00	0.00	0.00	1	1.0206704	30.969333	13.80	9	1.100	0.900	18.66	0.00	0	0
1071	1	119.36	25.91	0.00	0.00	1	0.9547092	9.921351	115.00	9	1.100	0.900	18.66	0.00	0	0
1072	2	0.00	0.00	0.00	0.00	1	0.9983512	14.709412	18.00	9	1.100	0.900	18.66	0.00	0	0
1073	2	0.00	0.00	0.00	0.00	1	1.0100000	17.958184	18.00	9	1.100	0.900	18.66	0.00	0	0
1074	2	0.00	0.00	0.00	0.00	1	1.0100000	16.889274	18.00	9	1.100	0.900	18.66	0.00	0	0
1075	2	0.00	0.00	0.00	0.00	1	1.0023009	15.554223	18.00	9	1.100	0.900	18.66	0.00	0	0
1076	2	0.00	0.00	0.00	0.00	1	0.9547092	9.921351	18.00	9	1.100	0.900	18.66	0.00	0	0
1077	2	0.00	0.00	0.00	0.00	1	0.9547092	9.921351	18.00	9	1.100	0.900	18.66	0.00	0	0
1078	2	0.00	0.00	0.00	0.00	1	0.9994314	15.324366	18.00	9	1.100	0.900	18.66	0.00	0	0
1079	2	0.00	0.00	0.00	0.00	1	0.9621087	-13.563236	500.00	9	1.100	0.900	18.66	0.00	0	0
1080	2	0.00	0.00	0.00	0.00	1	1.0047709	15.518605	18.00	9	1.100	0.900	18.66	0.00	0	0
1081	2	0.00	0.00	0.00	140.00	1	0.9608067	14.604496	230.00	9	1.100	0.900	18.66	0.00	0	0
1082	2	0.00	0.00	0.00	0.00	1	1.0000000	29.160207	115.00	9	1.100	0.900	18.66	-0.00	0	0
1083	2	52.13	11.32	0.00	26.15	1	1.0000000	32.116743	115.00	9	1.100	0.900	18.66	-0.00	0	0
1084	2	0.00	0.00	0.00	0.00	1	0.9894497	14.885200	115.00	9	1.100	0.900	18.66	-0.00	0	0
1085	2	27.79	6.03	0.00	0.00	1	1.0000000	25.763706	115.00	9	1.100	0.900	18.66	-0.00	0	0
1086	2	51.77	11.24	0.00	30.00	1	1.0115438	25.332386	115.00	9	1.100	0.900	18.66	0.00	0	0
1087	1	1.19	0.26	0.00	50.00	1	0.9988490	18.091565	115.00	9	1.100	0.900	18.66	0.00	0	0
1088	2	0.00	0.00	0.00	0.00	1	0.9920186	28.351065	115.00	9	1.100	0.900	18.66	0.00	0	0
1089	2	52.99	11.50	0.00	0.00	1	1.0000000	20.419180	115.00	9	1.100	0.900	18.66	-0.00	0	0
1090	2	0.00	0.00	0.00	0.00	1	0.9998585	20.923381	115.00	9	1.100	0.900	18.66	0.00	0	0
1091	1	15.17	3.29	0.00	0.00	1	0.9693456	13.133821	161.00	9	1.100	0.900	18.66	-0.00	0	0
2001	1	63.11	13.70	0.00	0.00	2	0.9988493	-46.133872	161.00	11	1.100	0.900	18.66	-0.00	0	0
2002	1	0.00	0.00	0.00	0.00	2	1.0097774	-47.039706	500.00	11	1.100	0.900	18.66	-0.00	0	0
2003	1	0.00	0.00	0.00	0.00	2	1.0081363	-49.360627	161.00	11	1.100	0.900	18.66	-0.00	0	0
2004	2	0.00	0.00	0.00	0.00	2	1.0097774	-47.039706	13.80	11	1.100	0.900	18.66	-0.00	0	0
2005	2	0.00	0.00	0.00	0.00	2	1.0097774	-47.039706	13.80	11	1.100	0.900	18.66	-0.00	0	0
2006	2	0.00	0.00	0.00	0.00	2	1.0097774	-47.039706	13.80	11	1.100	0.900	18.66	-0.00	0	0
2007	1	12.45	2.70	0.00	0.00	2	1.0007846	-45.447273	161.00	11	1.100	0.900	18.66	-0.00	0	0
2008	2	10.52	2.28	0.00	0.00	2	1.0015749	21.677168	161.00	10	1.100	0.900	18.66	-0.00	0	0
2009	1	51.07	11.09	0.00	120.00	2	0.9884157	-12.560129	161.00	11	1.100	0.900	18.66	0.00	0	0
2010	2	74.13	16.09	0.00	100.00	2	1.0000000	11.027212	161.00	10	1.100	0.900	18.66	0.00	0	0
2011	2	0.00	0.00	0.00	0.00	2	1.0086859	6.773872	500.00	10	1.100	0.900	18.66	-0.00	0	0
2012	2	0.00	0.00	0.00	0.00	2	0.9915714	13.723670	161.00	10	1.100	0.900	18.66	-0.00	0	0
2013	2	0.00	0.00	0.00	0.00	2	1.0000000	9.399506	18.00	10	1.100	0.900	18.66	-0.00	0	0
2014	1	33.18	7.20	0.00	0.00	2	0.9957731	21.638004	161.00	10	1.100	0.900	18.66	-0.00	0	0
2015	1	6.12	1.33	0.00	0.00	2	0.9921091	-40.771612	161.00	11	1.100	0.900	18.66	-0.00	0	0
2016	2	90.39	19.63	0.00	0.00	2	1.0044042	-56.833796	161.00	11	1.100	0.900	18.66	0.00	0	0
2017	1	0.00	0.00	0.00	0.00	2	1.0215384	1.806727	500.00	10	1.100	0.900	18.66	-0.00	0	0
2018	1	0.00	0.00	0.00	0.00	2	0.9989976	5.768815	161.00	10	1.100	0.900	18.66	-0.00	0	0
2019	2	0.00	0.00	0.00	0.00	2	1.0215384	1.806727	20.00	10	1.100	0.900	18.66	-0.00	0	0
2020	1	62.60	13.59	0.00	0.00	2	0.9672355	-18.780823	161.00	11	1.100	0.900	18.66	-0.00	0	0
2021	1	0.00	0.00	0.00	0.00	2	1.0133490	-42.160935	500.00	11	1.100	0.900	18.66	-0.00	0	0
2022	1	15.09	3.28	0.00	0.00	2	1.0086842	-44.447879	161.00	11	1.100	0.900	18.66	-0.00	0	0
2023	2	0.00	0.00	0.00	0.00	2	1.0200000	-40.593354	13.80	11	1.100	0.900	18.66	0.00	0	0
2024	2	0.00	0.00	0.00	0.00	2	1.0200000	-39.925668	13.80	11	1.100	0.900	18.66	0.00	0	0
2025	1	51.70	11.23	0.00	0.00	2	0.9642784	-18.786849	161.00	11	1.100	0.900	18.66	-0.00	0	0
2026	1	24.23	5.26	0.00	0.00	2	0.9893433	8.120981	161.00	10	1.100	0.900	18.66	-0.00	0	0
2027	1	4.64	1.01	0.00	0.00	2	0.9991282	-46.595655	161.00	11	1.100	0.900	18.66	-0.00	0	0
2028	1	18.58	4.03	0.00	0.00	2	0.9769387	-19.784538	161.00	11	1.100	0.900	18.66	-0.00	0	0
2029	2	4.18	0.91	0.00	0.00	2	1.0000000	23.087273	161.00	10	1.100	0.900	18.66	-0.00	0	0
2030	1	61.52	13.36	0.00	0.00	2	0.9858510	-50.336287	161.00	11	1.100	0.900	18.66	-0.00	0	0
2031	1	7.52	1.63	0.00	0.00	2	0.9981256	13.217971	161.00	10	1.100	0.900	18.66	-0.00	0	0
2032	1	4.38	0.95	0.00	0.00	2	1.0030172	-44.737762	161.00	11	1.100	0.900	18.66	-0.00	0	0
2033	1	17.71	3.85	0.00	0.00	2	0.9896932	-51.823314	161.00	11	1.100	0.900	18.66	-0.00	0	0
2034	1	6.97	1.51	0.00	0.00	2	1.0013846	-56.126987	161.00	11	1.100	0.900	18.66	-0.00	0	0
2035	2	6.11	1.33	0.00	0.00	2	1.0000000	19.409903	161.00	10	1.100	0.900	18.66	-0.00	0	0
2036	1	54.27	11.78	0.00	0.00	2	0.9709739	-16.656066	161.00	11	1.100	0.900	18.66	-0.00	0	0
2037	1	4.57	0.99	0.00	0.00	2	1.0023214	-40.775309	161.00	11	1.100	0.900	18.66	-0.00	0	0
2038	1	3.40	0.74	0.00	0.00	2	1.0072102	-49.401055	161.00	11	1.100	0.900	18.66	-0.00	0	0
2039	1	7.25	1.58	0.00	0.00	2	0.9805671	-38.383215	161.00	11	1.100	0.900	18.66	-0.00	0	0
2040	1	20.75	4.51	0.00	0.00	2	1.0052514	-45.169275	161.00	11	1.100	0.900	18.66	-0.00	0	0
2041	2	0.00	0.00	0.00	0.00	2	1.0000000	18.182318	161.00	10	1.100	0.900	18.66	-0.00	0	0
2042	2	0.00	0.00	0.00	0.00	2	1.0100000	21.134186	18.00	10	1.100	0.900	18.66	-0.00	0	0
2043	1	5.53	1.20	0.00	0.00	2	1.0024495	-56.456785	161.00	11	1.100	0.900	18.66	-0.00	0	0
2044	1	35.76	7.76	0.00	0.00	2	0.9975375	-46.189387	161.00	11	1.100	0.900	18.66	-0.00	0	0
2045	1	29.50	6.40	0.00	0.00	2	0.9686881	-19.064452	161.00	11	1.100	0.900	18.66	-0.00	0	0
2046	1	28.88	6.27	0.00	0.00	2	1.0007261	-55.696417	161.00	11	1.100	0.900	18.66	-0.00	0	0
2047	1	19.52	4.24	0.00	0.00	2	1.0059113	-50.500333	161.00	11	1.100	0.900	18.66	-0.00	0	0
2048	2	8.37	1.82	0.00	0.00	2	1.0000000	15.097034	161.00	10	1.100	0.900	18.66	-0.00	0	0
2049	2	15.10	3.28	0.00	0.00	2	1.0000000	-3.758410	161.00	10	1.100	0.900	18.66	-0.00	0	0
2050	1	4.77	1.04	0.00	0.00	2	0.9906456	-49.690829	161.00	11	1.100	0.900	18.66	-0.00	0	0
2051	2	23.29	5.06	0.00	0.00	2	1.0000000	-28.519616	161.00	11	1.100	0.900	18.66	-0.00	0	0
2052	1	32.41	7.04	0.00	0.00	2	0.9897188	17.066140	161.00	10	1.100	0.900	18.66	-0.00	0	0
2053	1	38.02	8.25	0.00	0.00	2	0.9826743	-39.654496	161.00	11	1.100	0.900	18.66	-0.00	0	0
2054	1	0.00	0.00	0.00	0.00	2	0.9677476	-18.586562	500.00	11	1.100	0.900	18.66	-0.00	0	0
2055	1	64.75	14.06	0.00	0.00	2	0.9667842	-18.125003	161.00	11	1.100	0.900	18.66	-0.00	0	0
2056	2	0.00	0.00	0.00	0.00	2	0.9677476	-18.586562	18.00	11	1.100	0.900	18.66	-0.00	0	0
2057	2	0.00	0.00	0.00	0.00	2	0.9900000	-15.309950	18.00	11	1.100	0.900	18.66	-0.00	0	0
2058	1	0.00	0.00	0.00	0.00	2	0.9990152	16.959507	161.00	10	1.100	0.900	18.66	-0.00	0	0
2059	2	0.00	0.00	0.00	0.00	2	1.0000000	20.433246	13.80	10	1.100	0.900	18.66	-0.00	0	0
2060	1	4.95	1.08	0.00	0.00	2	0.9948443	-48.172982	161.00	11	1.100	0.900	18.66	-0.00	0	0
2061	1	0.00	0.00	0.00	0.00	2	0.9985803	2.085314	161.00	10	1.100	0.900	18.66	-0.00	0	0
2062	2	0.00	0.00	0.00	0.00	2	1.0110590	4.424306	18.00	10	1.100	0.900	18.66	0.00	0	0
2063	1	85.63	18.59	0.00	40.00	2	1.0018679	-54.933516	161.00	11	1.100	0.900	18.66	-0.00	0	0
2064	1	13.11	2.85	0.00	0.00	2	1.0009872	-46.308335	161.00	11	1.100	0.900	18.66	-0.00	0	0
2065	2	102.26	22.20	0.00	100.00	2	1.0000000	-43.127929	161.00	11	1.100	0.900	18.66	0.00	0	0
2066	1	9.28	2.02	0.00	0.00	2	0.9790355	12.000215	161.00	10	1.100	0.900	18.66	-0.00	0	0
2067	1	70.43	15.29	0.00	0.00	2	0.9642022	-19.276129	161.00	11	1.100	0.900	18.66	-0.00	0	0
2068	1	7.52	1.63	0.00	0.00	2	0.9813960	-18.850397	161.00	11	1.100	0.900	18.66	-0.00	0	0
2069	1	28.61	6.21	0.00	120.00	2	1.0208732	-55.761283	161.00	11	1.100	0.900	18.66	0.00	0	0
2070	1	0.00	0.00	0.00	0.00	2	0.9854002	-18.996222	161.00	11	1.100	0.900	18.66	-0.00	0	0
2071	2	0.00	0.00	0.00	0.00	2	1.0000000	-15.279857	18.00	11	1.100	0.900	18.66	0.00	0	0
2072	1	12.67	2.75	0.00	0.00	2	1.0129015	-53.337916	161.00	11	1.100	0.900	18.66	0.00	0	0
2073	1	0.00	0.00	0.00	0.00	2	0.9729575	6.336018	161.00	10	1.100	0.900	18.66	-0.00	0	0
2074	1	0.00	0.00	0.00	0.00	2	0.9867302	8.659284	115.00	10	1.100	0.900	18.66	-0.00	0	0
2075	1	0.00	0.00	0.00	0.00	2	0.9867302	8.659284	115.00	10	1.100	0.900	18.66	-0.00	0	0
2076	2	0.00	0.00	0.00	0.00	2	0.9784366	7.323331	24.00	10	1.100	0.900	18.66	-0.00	0	0
2077	1	0.00	0.00	0.00	0.00	2	1.0099236	-37.595698	161.00	11	1.100	0.900	18.66	-0.00	0	0
2078	2	0.00	0.00	0.00	0.00	2	1.0200000	-34.259409	13.80	11	1.100	0.900	18.66	0.00	0	0
2079	1	5.85	1.27	0.00	0.00	2	1.0007412	12.497287	161.00	10	1.100	0.900	18.66	-0.00	0	0
2080	1	22.10	4.80	0.00	0.00	2	0.9961620	-31.494956	161.00	11	1.100	0.900	18.66	-0.00	0	0
2081	2	5.83	1.26	0.00	0.00	2	1.0054740	-49.399864	161.00	11	1.100	0.900	18.66	-0.00	0	0
2082	1	77.04	16.73	0.00	0.00	2	0.9752659	-15.493002	161.00	11	1.100	0.900	18.66	-0.00	0	0
2083	2	0.00	0.00	0.00	0.00	2	0.9903679	-13.819352	20.00	11	1.100	0.900	18.66	0.00	0	0
2084	2	0.00	0.00	0.00	0.00	2	0.9752659	-15.493002	20.00	11	1.100	0.900	18.66	-0.00	0	0
2085	2	0.00	0.00	0.00	0.00	2	0.9752659	-15.493002	20.00	11	1.100	0.900	18.66	-0.00	0	0
2086	1	2.86	0.62	0.00	0.00	2	0.9851144	-35.734631	161.00	11	1.100	0.900	18.66	-0.00	0	0
2087	2	10.30	2.24	0.00	0.00	2	0.9956962	12.003055	161.00	10	1.100	0.900	18.66	-0.00	0	0
2088	1	0.00	0.00	0.00	0.00	2	0.9838422	-18.758421	161.00	11	1.100	0.900	18.66	-0.00	0	0
2089	2	0.00	0.00	0.00	0.00	2	1.0000000	-15.115807	24.00	11	1.100	0.900	18.66	0.00	0	0
2090	1	3.16	0.69	0.00	0.00	2	0.9993613	-47.225600	161.00	11	1.100	0.900	18.66	-0.00	0	0
2091	2	22.25	4.83	0.00	0.00	2	1.0000000	16.463818	161.00	10	1.100	0.900	18.66	-0.00	0	0
2092	1	31.46	6.83	0.00	0.00	2	1.0019525	-52.818465	161.00	11	1.100	0.900	18.66	-0.00	0	0
2093	2	0.00	0.00	0.00	0.00	2	0.9964499	10.167826	161.00	10	1.100	0.900	18.66	-0.00	0	0
2094	2	0.00	0.00	0.00	0.00	2	1.0000000	10.821772	13.80	10	1.100	0.900	18.66	-0.00	0	0
2095	2	0.00	0.00	0.00	0.00	2	1.0000000	10.486411	13.80	10	1.100	0.900	18.66	-0.00	0	0
2096	1	0.00	0.00	0.00	0.00	2	0.9944392	0.785488	500.00	10	1.100	0.900	18.66	-0.00	0	0
2097	1	0.00	0.00	0.00	0.00	2	0.9879990	2.487528	230.00	10	1.100	0.900	18.66	-0.00	0	0
2098	1	0.00	0.00	0.00	0.00	2	0.9654527	11.644909	161.00	10	1.100	0.900	18.66	-0.00	0	0
2099	2	0.00	0.00	0.00	0.00	2	0.9952025	0.936092	18.00	10	1.100	0.900	18.66	-0.00	0	0
2100	2	0.00	0.00	0.00	0.00	2	1.0075919	3.497166	18.00	10	1.100	0.900	18.66	-0.00	0	0
2101	1	0.00	0.00	0.00	0.00	2	1.0090280	-48.141269	500.00	11	1.100	0.900	18.66	-0.00	0	0
2102	1	0.00	0.00	0.00	0.00	2	1.0061523	-49.281281	161.00	11	1.100	0.900	18.66	-0.00	0	0
2103	2	0.00	0.00	0.00	0.00	2	1.0090280	-48.141269	20.00	11	1.100	0.900	18.66	-0.00	0	0
2104	2	0.00	0.00	0.00	0.00	2	1.0090280	-48.141269	20.00	11	1.100	0.900	18.66	-0.00	0	0
2105	2	0.00	0.00	0.00	0.00	2	1.0090280	-48.141269	20.00	11	1.100	0.900	18.66	-0.00	0	0
2106	1	18.80	4.08	0.00	0.00	2	0.9882395	-52.535927	161.00	11	1.100	0.900	18.66	-0.00	0	0
2107	1	96.77	21.01	0.00	0.00	2	1.0005999	-50.269788	161.00	11	1.100	0.900	18.66	-0.00	0	0
2108	1	2.80	0.61	0.00	0.00	2	0.9972752	-4.321068	161.00	10	1.100	0.900	18.66	0.00	0	0
2109	2	44.12	9.58	0.00	0.00	2	0.9974288	-15.113933	161.00	11	1.100	0.900	18.66	-0.00	0	0
...
];

%% generator data 
mpc.gen = [
1004	158.25	44.94	44.94	-30.38	1.0100	253.20	1	158.25	158.25	0.00	0.00	0.00	0.00	0.00	0.00	0	0	0	0	211.0000	0	0	0	0
1006	25.73	7.03	7.31	-4.94	1.0000	41.16	1	25.73	25.73	0.00	0.00	0.00	0.00	0.00	0.00	0	0	0	0	34.3000	0	0	0	0
1007	216.59	0.00	0.00	0.00	1.0000	601.65	1	216.59	216.59	0.00	0.00	0.00	0.00	0.00	0.00	0	0	0	0	0.0000	0	0	0	0
1009	61.87	12.71	17.57	-11.88	1.0000	99.00	1	61.87	61.87	0.00	0.00	0.00	0.00	0.00	0.00	0	0	0	0	82.5000	0	0	0	0
1011	10.00	0.00	0.00	0.00	1.0000	12.00	1	10.00	10.00	0.00	0.00	0.00	0.00	0.00	0.00	0	0	0	0	10.0000	0	0	0	0
1016	439.47	-40.52	381.18	-381.18	1.0000	1220.75	1	439.47	439.47	0.00	0.00	0.00	0.00	0.00	0.00	0	0	0	0	0.0000	0	0	0	0
1016	135.00	-40.52	117.09	-117.09	1.0000	375.00	1	135.00	135.00	0.00	0.00	0.00	0.00	0.00	0.00	0	0	0	0	0.0000	0	0	0	0
1021	149.63	39.34	42.49	-28.73	1.0000	239.40	1	149.63	149.63	0.00	0.00	0.00	0.00	0.00	0.00	0	0	0	0	199.5000	0	0	0	0
1022	119.79	0.00	0.00	0.00	1.0000	332.75	1	119.79	119.79	0.00	0.00	0.00	0.00	0.00	0.00	0	0	0	0	0.0000	0	0	0	0
1023	135.00	28.69	38.34	-25.92	1.0100	216.00	1	135.00	135.00	0.00	0.00	0.00	0.00	0.00	0.00	0	0	0	0	180.0000	0	0	0	0
1023	119.79	0.00	0.00	0.00	1.0100	332.75	1	119.79	119.79	0.00	0.00	0.00	0.00	0.00	0.00	0	0	0	0	0.0000	0	0	0	0
1026	93.15	12.96	26.45	-17.88	1.0000	149.04	1	93.15	93.15	0.00	0.00	0.00	0.00	0.00	0.00	0	0	0	0	124.2000	0	0	0	0
1027	1.62	1.41	1.41	-1.41	1.0000	4.50	1	1.62	1.62	0.00	0.00	0.00	0.00	0.00	0.00	0	0	0	0	0.0000	0	0	0	0
1028	253.75	64.89	220.10	-220.10	1.0000	704.88	1	253.75	253.75	0.00	0.00	0.00	0.00	0.00	0.00	0	0	0	0	0.0000	0	0	0	0
1029	63.13	5.64	54.76	-54.76	1.0000	175.38	1	63.13	63.13	0.00	0.00	0.00	0.00	0.00	0.00	0	0	0	0	0.0000	0	0	0	0
1030	22.50	0.00	0.00	0.00	1.0000	62.50	1	22.50	22.50	0.00	0.00	0.00	0.00	0.00	0.00	0	0	0	0	0.0000	0	0	0	0
1032	209.14	0.00	0.00	0.00	1.0000	580.94	1	209.14	209.14	0.00	0.00	0.00	0.00	0.00	0.00	0	0	0	0	0.0000	0	0	0	0
1033	208.50	59.21	59.21	-40.03	1.0000	333.60	1	208.50	208.50	0.00	0.00	0.00	0.00	0.00	0.00	0	0	0	0	278.0000	0	0	0	0
1033	209.14	0.00	0.00	0.00	1.0000	580.94	1	209.14	209.14	0.00	0.00	0.00	0.00	0.00	0.00	0	0	0	0	0.0000	0	0	0	0
1035	67.50	0.55	19.17	-12.96	1.0000	108.00	1	67.50	67.50	0.00	0.00	0.00	0.00	0.00	0.00	0	0	0	0	90.0000	0	0	0	0
1036	117.90	0.00	0.00	0.00	1.0000	327.50	1	117.90	117.90	0.00	0.00	0.00	0.00	0.00	0.00	0	0	0	0	0.0000	0	0	0	0
1037	81.00	0.00	0.00	0.00	1.0000	225.00	1	81.00	81.00	0.00	0.00	0.00	0.00	0.00	0.00	0	0	0	0	0.0000	0	0	0	0
1039	110.63	12.86	31.42	-21.24	1.0000	177.00	1	110.63	110.63	0.00	0.00	0.00	0.00	0.00	0.00	0	0	0	0	147.5000	0	0	0	0
1040	72.32	33.34	62.72	-62.72	1.0000	200.88	1	72.32	72.32	0.00	0.00	0.00	0.00	0.00	0.00	0	0	0	0	0.0000	0	0	0	0
1040	487.76	0.00	0.00	0.00	1.0000	1354.88	1	487.76	487.76	0.00	0.00	0.00	0.00	0.00	0.00	0	0	0	0	0.0000	0	0	0	0
1042	0.00	0.00	25.96	-17.55	1.0000	146.28	0	121.90	36.57	0.00	0.00	0.00	0.00	0.00	0.00	0	0	0	0	121.9000	0	0	0	0
1043	44.10	-0.25	12.52	-8.47	1.0000	70.56	1	44.10	44.10	0.00	0.00	0.00	0.00	0.00	0.00	0	0	0	0	58.8000	0	0	0	0
1044	136.08	50.06	118.03	-118.03	1.0000	378.00	1	136.08	136.08	0.00	0.00	0.00	0.00	0.00	0.00	0	0	0	0	0.0000	0	0	0	0
1046	686.02	1.65	595.03	-595.03	1.0000	1905.63	1	686.02	686.02	0.00	0.00	0.00	0.00	0.00	0.00	0	0	0	0	0.0000	0	0	0	0
1048	0.00	0.00	165.53	-36.10	1.0000	390.24	0	325.20	97.56	0.00	0.00	0.00	0.00	0.00	0.00	0	0	0	0	325.2000	0	0	0	0
1049	0.00	0.00	165.53	-36.10	1.0000	390.24	0	325.20	97.56	0.00	0.00	0.00	0.00	0.00	0.00	0	0	0	0	325.2000	0	0	0	0
1050	89.40	26.46	45.50	-9.92	1.0000	107.28	1	89.40	26.82	0.00	0.00	0.00	0.00	0.00	0.00	0	0	0	0	89.4000	0	0	0	0
1051	89.40	19.80	45.50	-9.92	1.0000	107.28	1	89.40	26.82	0.00	0.00	0.00	0.00	0.00	0.00	0	0	0	0	89.4000	0	0	0	0
1052	89.40	30.49	45.50	-9.92	1.0000	107.28	1	89.40	26.82	0.00	0.00	0.00	0.00	0.00	0.00	0	0	0	0	89.4000	0	0	0	0
1053	0.00	0.00	91.01	-19.85	1.0000	214.56	0	178.80	53.64	0.00	0.00	0.00	0.00	0.00	0.00	0	0	0	0	178.8000	0	0	0	0
1055	111.33	53.01	96.56	-96.56	1.0000	309.25	1	111.33	111.33	0.00	0.00	0.00	0.00	0.00	0.00	0	0	0	0	0.0000	0	0	0	0
1057	0.00	0.00	25.56	-17.28	1.0000	144.00	0	120.00	36.00	0.00	0.00	0.00	0.00	0.00	0.00	0	0	0	0	120.0000	0	0	0	0
1059	0.00	0.00	2.85	-0.62	1.0400	6.72	0	5.60	1.68	0.00	0.00	0.00	0.00	0.00	0.00	0	0	0	0	5.6000	0	0	0	0
1060	0.00	0.00	1.02	-0.22	1.0400	2.40	0	2.00	0.60	0.00	0.00	0.00	0.00	0.00	0.00	0	0	0	0	2.0000	0	0	0	0
1061	52.50	34.25	45.54	-45.54	1.0000	145.83	1	52.50	52.50	0.00	0.00	0.00	0.00	0.00	0.00	0	0	0	0	0.0000	0	0	0	0
1062	0.00	0.00	0.00	0.00	1.0100	1.80	0	1.50	0.45	0.00	0.00	0.00	0.00	0.00	0.00	0	0	0	0	1.5000	0	0	0	0
1062	52.50	11.08	45.54	-45.54	1.0100	145.83	1	52.50	52.50	0.00	0.00	0.00	0.00	0.00	0.00	0	0	0	0	0.0000	0	0	0	0
1063	0.00	0.00	0.00	0.00	1.0100	276.00	0	230.00	69.00	0.00	0.00	0.00	0.00	0.00	0.00	0	0	0	0	230.0000	0	0	0	0
1063	52.50	8.24	45.54	-45.54	1.0100	145.83	1	52.50	52.50	0.00	0.00	0.00	0.00	0.00	0.00	0	0	0	0	0.0000	0	0	0	0
1066	106.88	0.63	30.35	-20.52	1.0000	171.00	1	106.88	106.88	0.00	0.00	0.00	0.00	0.00	0.00	0	0	0	0	142.5000	0	0	0	0
1070	120.38	34.19	34.19	-23.11	1.0400	192.60	1	120.38	120.38	0.00	0.00	0.00	0.00	0.00	0.00	0	0	0	0	160.5000	0	0	0	0
1072	192.13	97.80	97.80	-21.33	1.0100	230.56	1	192.13	57.64	0.00	0.00	0.00	0.00	0.00	0.00	0	0	0	0	192.1300	0	0	0	0
1073	192.13	84.92	97.80	-21.33	1.0100	230.56	1	192.13	57.64	0.00	0.00	0.00	0.00	0.00	0.00	0	0	0	0	192.1300	0	0	0	0
1074	192.13	92.25	97.80	-21.33	1.0100	230.56	1	192.13	57.64	0.00	0.00	0.00	0.00	0.00	0.00	0	0	0	0	192.1300	0	0	0	0
1075	192.13	97.80	97.80	-21.33	1.0100	230.56	1	192.13	57.64	0.00	0.00	0.00	0.00	0.00	0.00	0	0	0	0	192.1300	0	0	0	0
1076	0.00	0.00	97.80	-21.33	1.0100	230.56	0	192.13	57.64	0.00	0.00	0.00	0.00	0.00	0.00	0	0	0	0	192.1300	0	0	0	0
1077	0.00	0.00	97.80	-21.33	1.0100	230.56	0	192.13	57.64	0.00	0.00	0.00	0.00	0.00	0.00	0	0	0	0	192.1300	0	0	0	0
1078	95.50	48.61	48.61	-10.60	1.0100	114.60	1	95.50	28.65	0.00	0.00	0.00	0.00	0.00	0.00	0	0	0	0	95.5000	0	0	0	0
1079	95.50	48.61	48.61	-10.60	1.0100	114.60	1	95.50	28.65	0.00	0.00	0.00	0.00	0.00	0.00	0	0	0	0	95.5000	0	0	0	0
1080	95.50	48.61	48.61	-10.60	1.0100	114.60	1	95.50	28.65	0.00	0.00	0.00	0.00	0.00	0.00	0	0	0	0	95.5000	0	0	0	0
1081	0.00	0.00	145.83	-31.80	1.0100	343.80	0	286.50	85.95	0.00	0.00	0.00	0.00	0.00	0.00	0	0	0	0	286.5000	0	0	0	0
1082	112.50	-0.61	31.95	-21.60	1.0000	180.00	1	112.50	112.50	0.00	0.00	0.00	0.00	0.00	0.00	0	0	0	0	150.0000	0	0	0	0
1083	86.26	-40.03	74.82	-74.82	1.0000	239.63	1	86.26	86.26	0.00	0.00	0.00	0.00	0.00	0.00	0	0	0	0	0.0000	0	0	0	0
1083	718.04	0.00	0.00	0.00	1.0000	1994.56	1	718.04	718.04	0.00	0.00	0.00	0.00	0.00	0.00	0	0	0	0	0.0000	0	0	0	0
1084	86.62	24.60	24.60	-16.63	1.0400	138.60	1	86.62	86.62	0.00	0.00	0.00	0.00	0.00	0.00	0	0	0	0	115.5000	0	0	0	0
1085	68.67	-0.94	59.56	-59.56	1.0000	190.75	1	68.67	68.67	0.00	0.00	0.00	0.00	0.00	0.00	0	0	0	0	0.0000	0	0	0	0
1085	113.85	0.00	0.00	0.00	1.0000	316.24	1	113.85	113.85	0.00	0.00	0.00	0.00	0.00	0.00	0	0	0	0	0.0000	0	0	0	0
1086	45.00	0.00	0.00	0.00	1.0000	125.00	1	45.00	45.00	0.00	0.00	0.00	0.00	0.00	0.00	0	0	0	0	0.0000	0	0	0	0
1088	56.25	15.97	15.97	-10.80	1.0000	90.00	1	56.25	56.25	0.00	0.00	0.00	0.00	0.00	0.00	0	0	0	0	75.0000	0	0	0	0
1089	95.04	-32.89	82.43	-82.43	1.0000	264.00	1	95.04	95.04	0.00	0.00	0.00	0.00	0.00	0.00	0	0	0	0	0.0000	0	0	0	0
1089	68.22	0.00	0.00	0.00	1.0000	189.50	1	68.22	68.22	0.00	0.00	0.00	0.00	0.00	0.00	0	0	0	0	0.0000	0	0	0	0
1090	114.37	32.48	32.48	-21.96	1.0200	183.00	1	152.50	45.75	0.00	0.00	0.00	0.00	0.00	0.00	0	0	0	0	152.5000	0	0	0	0
1090	27.00	7.67	7.67	-5.18	1.0200	43.20	1	36.00	10.80	0.00	0.00	0.00	0.00	0.00	0.00	0	0	0	0	36.0000	0	0	0	0
2004	0.00	0.00	199.43	-43.49	1.0200	470.16	0	391.80	117.54	0.00	0.00	0.00	0.00	0.00	0.00	0	0	0	0	391.8000	0	0	0	0
2005	0.00	0.00	199.43	-43.49	1.0200	470.16	0	391.80	117.54	0.00	0.00	0.00	0.00	0.00	0.00	0	0	0	0	391.8000	0	0	0	0
2006	0.00	0.00	199.43	-43.49	1.0200	470.16	0	391.80	117.54	0.00	0.00	0.00	0.00	0.00	0.00	0	0	0	0	391.8000	0	0	0	0
2008	108.00	0.00	0.00	0.00	1.0000	300.00	1	108.00	108.00	0.00	0.00	0.00	0.00	0.00	0.00	0	0	0	0	0.0000	0	0	0	0
2010	157.63	-80.45	136.73	-136.73	1.0000	437.88	1	157.63	157.63	0.00	0.00	0.00	0.00	0.00	0.00	0	0	0	0	0.0000	0	0	0	0
2011	8.63	-7.48	7.48	-7.48	1.0000	23.96	1	8.63	8.63	0.00	0.00	0.00	0.00	0.00	0.00	0	0	0	0	0.0000	0	0	0	0
2012	8.63	7.48	7.48	7.48	0.9916	23.96	1	8.63	8.63	0.00	0.00	0.00	0.00	0.00	0.00	0	0	0	0	0.0000	0	0	0	0
2013	150.45	-21.21	42.73	-28.89	1.0000	240.72	1	150.45	150.45	0.00	0.00	0.00	0.00	0.00	0.00	0	0	0	0	200.6000	0	0	0	0
2013	8.63	-7.48	7.48	-7.48	1.0000	23.96	1	8.63	8.63	0.00	0.00	0.00	0.00	0.00	0.00	0	0	0	0	0.0000	0	0	0	0
2016	9.13	0.00	0.00	0.00	1.0000	25.38	1	9.13	9.13	0.00	0.00	0.00	0.00	0.00	0.00	0	0	0	0	0.0000	0	0	0	0
2019	0.00	0.00	46.43	-31.39	1.0400	261.60	0	218.00	65.40	0.00	0.00	0.00	0.00	0.00	0.00	0	0	0	0	218.0000	0	0	0	0
2023	83.33	19.73	42.42	-9.25	1.0200	100.00	1	83.33	25.00	0.00	0.00	0.00	0.00	0.00	0.00	0	0	0	0	83.3300	0	0	0	0
2024	166.67	28.74	84.83	-18.50	1.0200	200.00	1	166.67	50.00	0.00	0.00	0.00	0.00	0.00	0.00	0	0	0	0	166.6700	0	0	0	0
2029	67.45	-1.29	58.51	-58.51	1.0000	187.38	1	67.45	67.45	0.00	0.00	0.00	0.00	0.00	0.00	0	0	0	0	0.0000	0	0	0	0
2029	432.77	-1.29	375.36	-375.36	1.0000	1202.13	1	432.77	432.77	0.00	0.00	0.00	0.00	0.00	0.00	0	0	0	0	0.0000	0	0	0	0
2029	225.90	0.00	0.00	0.00	1.0000	627.50	1	225.90	225.90	0.00	0.00	0.00	0.00	0.00	0.00	0	0	0	0	0.0000	0	0	0	0
2035	361.98	5.07	313.97	-313.97	1.0000	1005.50	1	361.98	361.98	0.00	0.00	0.00	0.00	0.00	0.00	0	0	0	0	0.0000	0	0	0	0
2041	94.52	-35.62	81.99	-81.99	1.0000	262.56	1	94.52	94.52	0.00	0.00	0.00	0.00	0.00	0.00	0	0	0	0	0.0000	0	0	0	0
2041	127.15	-35.62	110.28	-110.28	1.0000	353.19	1	127.15	127.15	0.00	0.00	0.00	0.00	0.00	0.00	0	0	0	0	0.0000	0	0	0	0
2041	51.84	-35.62	44.96	-44.96	1.0000	144.00	1	51.84	51.84	0.00	0.00	0.00	0.00	0.00	0.00	0	0	0	0	0.0000	0	0	0	0
2042	59.70	15.93	16.95	-11.46	1.0100	95.52	1	59.70	59.70	0.00	0.00	0.00	0.00	0.00	0.00	0	0	0	0	79.6000	0	0	0	0
2042	94.52	15.93	81.99	-81.99	1.0100	262.56	1	94.52	94.52	0.00	0.00	0.00	0.00	0.00	0.00	0	0	0	0	0.0000	0	0	0	0
2042	127.15	15.93	110.28	-110.28	1.0100	353.19	1	127.15	127.15	0.00	0.00	0.00	0.00	0.00	0.00	0	0	0	0	0.0000	0	0	0	0
2042	51.84	15.93	44.96	-44.96	1.0100	144.00	1	51.84	51.84	0.00	0.00	0.00	0.00	0.00	0.00	0	0	0	0	0.0000	0	0	0	0
2048	111.28	5.54	96.52	-96.52	1.0000	309.13	1	111.28	111.28	0.00	0.00	0.00	0.00	0.00	0.00	0	0	0	0	0.0000	0	0	0	0
2049	490.46	66.50	425.40	-425.40	1.0000	1362.38	1	490.46	490.46	0.00	0.00	0.00	0.00	0.00	0.00	0	0	0	0	0.0000	0	0	0	0
2051	91.84	64.10	79.66	-79.66	1.0000	255.13	1	91.84	91.84	0.00	0.00	0.00	0.00	0.00	0.00	0	0	0	0	0.0000	0	0	0	0
2056	0.00	0.00	2.80	-0.73	0.9900	7.20	0	6.00	1.80	0.00	0.00	0.00	0.00	0.00	0.00	0	0	0	0	6.0000	0	0	0	0
2057	417.76	170.72	335.52	-87.84	0.9900	864.00	1	720.00	216.00	0.00	0.00	0.00	0.00	0.00	0.00	0	0	0	0	720.0000	0	0	0	0
2059	60.00	-0.40	17.04	-11.52	1.0000	96.00	1	60.00	60.00	0.00	0.00	0.00	0.00	0.00	0.00	0	0	0	0	80.0000	0	0	0	0
2062	101.55	28.84	28.84	-19.50	1.0200	162.48	1	101.55	101.55	0.00	0.00	0.00	0.00	0.00	0.00	0	0	0	0	135.4000	0	0	0	0
2065	141.61	-89.19	122.83	-122.83	1.0000	393.38	1	141.61	141.61	0.00	0.00	0.00	0.00	0.00	0.00	0	0	0	0	0.0000	0	0	0	0
2065	29.25	0.00	0.00	0.00	1.0000	81.25	1	29.25	29.25	0.00	0.00	0.00	0.00	0.00	0.00	0	0	0	0	0.0000	0	0	0	0
2071	112.50	26.67	31.95	-21.60	1.0000	180.00	1	112.50	112.50	0.00	0.00	0.00	0.00	0.00	0.00	0	0	0	0	150.0000	0	0	0	0
2076	22.50	6.39	6.39	-4.32	1.0400	36.00	1	22.50	22.50	0.00	0.00	0.00	0.00	0.00	0.00	0	0	0	0	30.0000	0	0	0	0
2078	84.38	14.48	23.96	-16.20	1.0200	135.00	1	84.38	84.38	0.00	0.00	0.00	0.00	0.00	0.00	0	0	0	0	112.5000	0	0	0	0
2081	98.82	0.00	0.00	0.00	1.0000	274.50	1	98.82	98.82	0.00	0.00	0.00	0.00	0.00	0.00	0	0	0	0	0.0000	0	0	0	0
2083	20.00	10.18	10.18	-2.22	1.0200	24.00	1	20.00	6.00	0.00	0.00	0.00	0.00	0.00	0.00	0	0	0	0	20.0000	0	0	0	0
2084	0.00	0.00	10.18	-2.22	1.0200	24.00	0	20.00	6.00	0.00	0.00	0.00	0.00	0.00	0.00	0	0	0	0	20.0000	0	0	0	0
2085	0.00	0.00	20.36	-4.44	1.0200	48.00	0	40.00	12.00	0.00	0.00	0.00	0.00	0.00	0.00	0	0	0	0	40.0000	0	0	0	0
2087	13.50	11.71	11.71	-11.71	1.0000	37.50	1	13.50	13.50	0.00	0.00	0.00	0.00	0.00	0.00	0	0	0	0	0.0000	0	0	0	0
2087	205.15	0.00	0.00	0.00	1.0000	569.85	1	205.15	205.15	0.00	0.00	0.00	0.00	0.00	0.00	0	0	0	0	0.0000	0	0	0	0
2089	50.70	13.58	14.40	-9.73	1.0000	81.12	1	50.70	50.70	0.00	0.00	0.00	0.00	0.00	0.00	0	0	0	0	67.6000	0	0	0	0
2091	148.59	-25.83	128.88	-128.88	1.0000	412.75	1	148.59	148.59	0.00	0.00	0.00	0.00	0.00	0.00	0	0	0	0	0.0000	0	0	0	0
2093	11.06	9.59	9.59	-9.59	1.0000	30.71	1	11.06	11.06	0.00	0.00	0.00	0.00	0.00	0.00	0	0	0	0	0.0000	0	0	0	0
2094	0.00	0.00	2.13	-1.44	1.0000	12.00	0	10.00	3.00	0.00	0.00	0.00	0.00	0.00	0.00	0	0	0	0	10.0000	0	0	0	0
2094	11.06	3.32	9.59	-9.59	1.0000	30.71	1	11.06	11.06	0.00	0.00	0.00	0.00	0.00	0.00	0	0	0	0	0.0000	0	0	0	0
2095	0.00	0.00	16.93	-11.45	1.0000	95.40	0	79.50	23.85	0.00	0.00	0.00	0.00	0.00	0.00	0	0	0	0	79.5000	0	0	0	0
2095	11.06	6.67	9.59	-9.59	1.0000	30.71	1	11.06	11.06	0.00	0.00	0.00	0.00	0.00	0.00	0	0	0	0	0.0000	0	0	0	0
2099	7.50	2.13	2.13	-1.44	1.0200	12.00	1	7.50	7.50	0.00	0.00	0.00	0.00	0.00	0.00	0	0	0	0	10.0000	0	0	0	0
2100	112.50	31.95	31.95	-21.60	1.0200	180.00	1	112.50	112.50	0.00	0.00	0.00	0.00	0.00	0.00	0	0	0	0	150.0000	0	0	0	0
2103	0.00	0.00	136.28	-29.72	1.0000	321.28	0	267.73	80.32	0.00	0.00	0.00	0.00	0.00	0.00	0	0	0	0	267.7300	0	0	0	0
2104	0.00	0.00	136.28	-29.72	1.0000	321.28	0	267.73	80.32	0.00	0.00	0.00	0.00	0.00	0.00	0	0	0	0	267.7300	0	0	0	0
2105	0.00	0.00	136.28	-29.72	1.0000	321.28	0	267.73	80.32	0.00	0.00	0.00	0.00	0.00	0.00	0	0	0	0	267.7300	0	0	0	0
2109	94.59	82.04	82.04	-82.04	1.0000	262.75	1	94.59	94.59	0.00	0.00	0.00	0.00	0.00	0.00	0	0	0	0	0.0000	0	0	0	0
2113	71.45	0.00	0.00	0.00	1.0000	198.48	1	71.45	71.45	0.00	0.00	0.00	0.00	0.00	0.00	0	0	0	0	0.0000	0	0	0	0
2114	71.45	0.00	0.00	0.00	1.0000	198.48	1	71.45	71.45	0.00	0.00	0.00	0.00	0.00	0.00	0	0	0	0	0.0000	0	0	0	0
2115	184.72	-20.50	94.02	-20.50	1.0000	221.66	1	184.72	55.41	0.00	0.00	0.00	0.00	0.00	0.00	0	0	0	0	184.7200	0	0	0	0
2115	71.45	0.00	0.00	0.00	1.0000	198.48	1	71.45	71.45	0.00	0.00	0.00	0.00	0.00	0.00	0	0	0	0	0.0000	0	0	0	0
2116	184.72	-20.50	94.02	-20.50	1.0000	221.66	1	184.72	55.41	0.00	0.00	0.00	0.00	0.00	0.00	0	0	0	0	184.7200	0	0	0	0
2116	71.45	0.00	0.00	0.00	1.0000	198.48	1	71.45	71.45	0.00	0.00	0.00	0.00	0.00	0.00	0	0	0	0	0.0000	0	0	0	0
2117	184.72	-18.08	94.02	-20.50	1.0000	221.66	1	184.72	55.41	0.00	0.00	0.00	0.00	0.00	0.00	0	0	0	0	184.7200	0	0	0	0
2117	71.45	0.00	0.00	0.00	1.0000	198.48	1	71.45	71.45	0.00	0.00	0.00	0.00	0.00	0.00	0	0	0	0	0.0000	0	0	0	0
2118	184.72	-14.45	94.02	-20.50	1.0000	221.66	1	184.72	55.41	0.00	0.00	0.00	0.00	0.00	0.00	0	0	0	0	184.7200	0	0	0	0
2118	71.45	0.00	0.00	0.00	1.0000	198.48	1	71.45	71.45	0.00	0.00	0.00	0.00	0.00	0.00	0	0	0	0	0.0000	0	0	0	0
2119	184.72	-20.50	94.02	-20.50	1.0000	221.66	1	184.72	55.41	0.00	0.00	0.00	0.00	0.00	0.00	0	0	0	0	184.7200	0	0	0	0
2119	71.45	0.00	0.00	0.00	1.0000	198.48	1	71.45	71.45	0.00	0.00	0.00	0.00	0.00	0.00	0	0	0	0	0.0000	0	0	0	0
2120	184.72	4.22	94.02	-20.50	1.0100	221.66	1	184.72	55.41	0.00	0.00	0.00	0.00	0.00	0.00	0	0	0	0	184.7200	0	0	0	0
2120	71.45	0.00	0.00	0.00	1.0100	198.48	1	71.45	71.45	0.00	0.00	0.00	0.00	0.00	0.00	0	0	0	0	0.0000	0	0	0	0
2123	136.28	-15.62	38.70	-26.16	1.0000	218.04	1	136.28	136.28	0.00	0.00	0.00	0.00	0.00	0.00	0	0	0	0	181.7000	0	0	0	0
2123	220.99	-15.62	191.68	-191.68	1.0000	613.88	1	220.99	220.99	0.00	0.00	0.00	0.00	0.00	0.00	0	0	0	0	0.0000	0	0	0	0
2127	216.45	61.47	61.47	-41.56	1.0400	346.32	1	216.45	216.45	0.00	0.00	0.00	0.00	0.00	0.00	0	0	0	0	288.6000	0	0	0	0
2130	118.17	-38.35	102.50	-102.50	1.0000	328.25	1	118.17	118.17	0.00	0.00	0.00	0.00	0.00	0.00	0	0	0	0	0.0000	0	0	0	0
2130	51.06	0.00	0.00	0.00	1.0000	141.83	1	51.06	51.06	0.00	0.00	0.00	0.00	0.00	0.00	0	0	0	0	0.0000	0	0	0	0
2131	118.17	16.49	102.50	-102.50	1.0000	328.25	1	118.17	118.17	0.00	0.00	0.00	0.00	0.00	0.00	0	0	0	0	0.0000	0	0	0	0
2131	51.06	0.00	0.00	0.00	1.0000	141.83	1	51.06	51.06	0.00	0.00	0.00	0.00	0.00	0.00	0	0	0	0	0.0000	0	0	0	0
2132	118.17	-6.44	102.50	-102.50	1.0000	328.25	1	118.17	118.17	0.00	0.00	0.00	0.00	0.00	0.00	0	0	0	0	0.0000	0	0	0	0
2132	51.06	0.00	0.00	0.00	1.0000	141.83	1	51.06	51.06	0.00	0.00	0.00	0.00	0.00	0.00	0	0	0	0	0.0000	0	0	0	0
3004	28.13	2.74	7.99	-5.40	1.0000	45.00	1	28.13	28.13	0.00	0.00	0.00	0.00	0.00	0.00	0	0	0	0	37.5000	0	0	0	0
3017	127.13	36.10	36.10	-24.41	1.0100	203.40	1	127.13	127.13	0.00	0.00	0.00	0.00	0.00	0.00	0	0	0	0	169.5000	0	0	0	0
3020	112.50	31.95	31.95	-21.60	1.0300	180.00	1	112.50	112.50	0.00	0.00	0.00	0.00	0.00	0.00	0	0	0	0	150.0000	0	0	0	0
3024	89.78	77.87	77.87	-77.87	1.0000	249.38	1	89.78	89.78	0.00	0.00	0.00	0.00	0.00	0.00	0	0	0	0	0.0000	0	0	0	0
3028	150.00	42.60	42.60	-28.80	1.0400	240.00	1	150.00	150.00	0.00	0.00	0.00	0.00	0.00	0.00	0	0	0	0	200.0000	0	0	0	0
3034	97.87	27.80	27.80	-18.79	1.0300	156.60	1	97.87	97.87	0.00	0.00	0.00	0.00	0.00	0.00	0	0	0	0	130.5000	0	0	0	0
3039	156.75	44.52	44.52	-30.10	1.0400	250.80	1	156.75	156.75	0.00	0.00	0.00	0.00	0.00	0.00	0	0	0	0	209.0000	0	0	0	0
3041	33.79	29.30	29.30	-29.30	1.0000	93.85	1	33.79	33.79	0.00	0.00	0.00	0.00	0.00	0.00	0	0	0	0	0.0000	0	0	0	0
3042	33.79	29.30	29.30	-29.30	1.0000	93.85	1	33.79	33.79	0.00	0.00	0.00	0.00	0.00	0.00	0	0	0	0	0.0000	0	0	0	0
3043	0.00	0.00	0.66	-0.14	1.0400	1.56	0	1.30	0.39	0.00	0.00	0.00	0.00	0.00	0.00	0	0	0	0	1.3000	0	0	0	0
3043	33.79	29.30	29.30	-29.30	1.0400	93.85	1	33.79	33.79	0.00	0.00	0.00	0.00	0.00	0.00	0	0	0	0	0.0000	0	0	0	0
3044	0.00	0.00	45.50	-9.92	1.0400	107.28	0	89.40	26.82	0.00	0.00	0.00	0.00	0.00	0.00	0	0	0	0	89.4000	0	0	0	0
3044	33.79	29.30	29.30	-29.30	1.0400	93.85	1	33.79	33.79	0.00	0.00	0.00	0.00	0.00	0.00	0	0	0	0	0.0000	0	0	0	0
3045	0.00	0.00	227.52	-49.62	1.0400	536.40	0	447.00	134.10	0.00	0.00	0.00	0.00	0.00	0.00	0	0	0	0	447.0000	0	0	0	0
3045	33.79	29.30	29.30	-29.30	1.0400	93.85	1	33.79	33.79	0.00	0.00	0.00	0.00	0.00	0.00	0	0	0	0	0.0000	0	0	0	0
3048	180.75	51.33	51.33	-34.70	1.0400	289.20	1	180.75	180.75	0.00	0.00	0.00	0.00	0.00	0.00	0	0	0	0	241.0000	0	0	0	0
3049	90.72	0.00	0.00	0.00	1.0000	252.00	1	90.72	90.72	0.00	0.00	0.00	0.00	0.00	0.00	0	0	0	0	0.0000	0	0	0	0
3050	33.59	29.14	29.14	-29.14	1.0000	93.31	1	33.59	33.59	0.00	0.00	0.00	0.00	0.00	0.00	0	0	0	0	0.0000	0	0	0	0
3051	33.59	29.14	29.14	-29.14	1.0000	93.31	1	33.59	33.59	0.00	0.00	0.00	0.00	0.00	0.00	0	0	0	0	0.0000	0	0	0	0
3055	183.88	52.22	52.22	-35.30	1.0400	294.20	1	183.88	183.88	0.00	0.00	0.00	0.00	0.00	0.00	0	0	0	0	245.1700	0	0	0	0
3056	183.88	52.22	52.22	-35.30	1.0400	294.20	1	183.88	183.88	0.00	0.00	0.00	0.00	0.00	0.00	0	0	0	0	245.1700	0	0	0	0
3057	183.88	52.22	52.22	-35.30	1.0400	294.20	1	183.88	183.88	0.00	0.00	0.00	0.00	0.00	0.00	0	0	0	0	245.1700	0	0	0	0
3060	124.22	35.28	35.28	-23.85	1.0400	198.75	1	124.22	124.22	0.00	0.00	0.00	0.00	0.00	0.00	0	0	0	0	165.6300	0	0	0	0
3061	124.22	35.28	35.28	-23.85	1.0400	198.75	1	124.22	124.22	0.00	0.00	0.00	0.00	0.00	0.00	0	0	0	0	165.6300	0	0	0	0
3062	124.22	35.28	35.28	-23.85	1.0400	198.75	1	124.22	124.22	0.00	0.00	0.00	0.00	0.00	0.00	0	0	0	0	165.6300	0	0	0	0
3063	124.22	35.28	35.28	-23.85	1.0400	198.75	1	124.22	124.22	0.00	0.00	0.00	0.00	0.00	0.00	0	0	0	0	165.6300	0	0	0	0
3065	60.37	6.80	17.15	-11.59	1.0000	96.60	1	60.37	60.37	0.00	0.00	0.00	0.00	0.00	0.00	0	0	0	0	80.5000	0	0	0	0
3066	152.91	61.09	132.63	-132.63	1.0000	424.75	1	152.91	152.91	0.00	0.00	0.00	0.00	0.00	0.00	0	0	0	0	0.0000	0	0	0	0
3068	112.50	31.95	31.95	-21.60	1.0400	180.00	1	112.50	112.50	0.00	0.00	0.00	0.00	0.00	0.00	0	0	0	0	150.0000	0	0	0	0
3071	127.65	-3.76	36.25	-24.51	1.0000	204.24	1	127.65	127.65	0.00	0.00	0.00	0.00	0.00	0.00	0	0	0	0	170.2000	0	0	0	0
3074	74.85	-4.41	21.26	-14.37	1.0000	119.76	1	74.85	74.85	0.00	0.00	0.00	0.00	0.00	0.00	0	0	0	0	99.8000	0	0	0	0
3075	3.38	0.00	0.00	0.00	1.0000	9.38	1	3.38	3.38	0.00	0.00	0.00	0.00	0.00	0.00	0	0	0	0	0.0000	0	0	0	0
3076	71.68	0.00	0.00	0.00	1.0000	199.13	1	71.68	71.68	0.00	0.00	0.00	0.00	0.00	0.00	0	0	0	0	0.0000	0	0	0	0
3081	186.75	53.04	53.04	-35.86	1.0400	298.80	1	186.75	186.75	0.00	0.00	0.00	0.00	0.00	0.00	0	0	0	0	249.0000	0	0	0	0
3084	174.37	39.61	49.52	-33.48	1.0000	279.00	1	174.37	174.37	0.00	0.00	0.00	0.00	0.00	0.00	0	0	0	0	232.5000	0	0	0	0
3086	56.25	15.97	15.97	-10.80	1.0000	90.00	1	56.25	56.25	0.00	0.00	0.00	0.00	0.00	0.00	0	0	0	0	75.0000	0	0	0	0
3087	0.00	0.00	15.97	-10.80	1.0000	90.00	0	75.00	22.50	0.00	0.00	0.00	0.00	0.00	0.00	0	0	0	0	75.0000	0	0	0	0
3092	150.00	42.60	42.60	-28.80	1.0400	240.00	1	150.00	150.00	0.00	0.00	0.00	0.00	0.00	0.00	0	0	0	0	200.0000	0	0	0	0
3095	90.45	25.69	25.69	-17.37	1.0400	144.72	1	90.45	90.45	0.00	0.00	0.00	0.00	0.00	0.00	0	0	0	0	120.6000	0	0	0	0
3098	120.00	34.08	34.08	-23.04	1.0400	192.00	1	120.00	120.00	0.00	0.00	0.00	0.00	0.00	0.00	0	0	0	0	160.0000	0	0	0	0
3105	44.50	17.07	17.07	-0.74	1.0000	46.72	1	44.50	0.00	0.00	0.00	0.00	0.00	0.00	0.00	0	0	0	0	15.0000	0	0	0	0
3106	162.80	56.96	62.48	-2.69	1.0000	170.94	1	162.80	0.00	0.00	0.00	0.00	0.00	0.00	0.00	0	0	0	0	54.9000	0	0	0	0
3110	63.00	17.89	17.89	-12.10	1.0400	100.80	1	63.00	63.00	0.00	0.00	0.00	0.00	0.00	0.00	0	0	0	0	84.0000	0	0	0	0
3112	56.10	15.93	15.93	-10.77	1.0000	89.76	1	56.10	56.10	0.00	0.00	0.00	0.00	0.00	0.00	0	0	0	0	74.8000	0	0	0	0
3113	56.10	15.93	15.93	-10.77	1.0000	89.76	1	56.10	56.10	0.00	0.00	0.00	0.00	0.00	0.00	0	0	0	0	74.8000	0	0	0	0
3114	4.50	3.90	3.90	-3.90	1.0000	12.50	1	4.50	4.50	0.00	0.00	0.00	0.00	0.00	0.00	0	0	0	0	0.0000	0	0	0	0
3115	287.60	36.32	249.45	-249.45	1.0000	798.88	1	287.60	287.60	0.00	0.00	0.00	0.00	0.00	0.00	0	0	0	0	0.0000	0	0	0	0
3117	47.25	-2.43	13.42	-9.07	1.0000	75.60	1	47.25	47.25	0.00	0.00	0.00	0.00	0.00	0.00	0	0	0	0	63.0000	0	0	0	0
3118	90.00	-10.04	25.56	-17.28	1.0000	144.00	1	90.00	90.00	0.00	0.00	0.00	0.00	0.00	0.00	0	0	0	0	120.0000	0	0	0	0
3120	29.70	0.00	0.00	0.00	1.0000	47.52	1	29.70	29.70	0.00	0.00	0.00	0.00	0.00	0.00	0	0	0	0	39.6000	0	0	0	0
3122	147.75	5.65	41.96	-28.37	1.0000	236.40	1	147.75	147.75	0.00	0.00	0.00	0.00	0.00	0.00	0	0	0	0	197.0000	0	0	0	0
3126	45.00	0.00	0.00	0.00	1.0000	125.00	1	45.00	45.00	0.00	0.00	0.00	0.00	0.00	0.00	0	0	0	0	0.0000	0	0	0	0
3127	101.25	-19.44	28.76	-19.44	1.0000	162.00	1	101.25	101.25	0.00	0.00	0.00	0.00	0.00	0.00	0	0	0	0	135.0000	0	0	0	0
3127	225.09	-25.75	195.23	-195.23	1.0000	625.25	1	225.09	225.09	0.00	0.00	0.00	0.00	0.00	0.00	0	0	0	0	0.0000	0	0	0	0
...
];

%% generator cost data
mpc.gencost = [
2	0	0	4	0.0000	0.000	0.000	0.00
2	0	0	4	0.0000	0.000	0.000	0.00
2	0	0	4	0.0000	0.010	10.000	0.00
2	0	0	4	0.0000	0.000	0.000	0.00
2	0	0	4	0.0000	0.000	0.000	0.00
2	0	0	4	0.0000	0.010	10.000	0.00
2	0	0	4	0.0000	0.010	10.000	0.00
2	0	0	4	0.0000	0.000	0.000	0.00
2	0	0	4	0.0000	0.010	10.000	0.00
2	0	0	4	0.0000	0.000	0.000	0.00
2	0	0	4	0.0000	0.010	10.000	0.00
2	0	0	4	0.0000	0.000	0.000	0.00
2	0	0	4	0.0000	0.010	10.000	0.00
2	0	0	4	0.0000	0.010	10.000	0.00
2	0	0	4	0.0000	0.010	10.000	0.00
2	0	0	4	0.0000	0.010	10.000	0.00
2	0	0	4	0.0000	0.010	10.000	0.00
2	0	0	4	0.0000	0.000	0.000	0.00
2	0	0	4	0.0000	0.010	10.000	0.00
2	0	0	4	0.0000	0.000	0.000	0.00
2	0	0	4	0.0000	0.010	10.000	0.00
2	0	0	4	0.0000	0.010	10.000	0.00
2	0	0	4	0.0000	0.000	0.000	0.00
2	0	0	4	0.0000	0.010	10.000	0.00
2	0	0	4	0.0000	0.010	10.000	0.00
2	0	0	4	0.0000	0.000	0.000	0.00
2	0	0	4	0.0000	0.000	0.000	0.00
2	0	0	4	0.0000	0.010	10.000	0.00
2	0	0	4	0.0000	0.010	10.000	0.00
2	0	0	4	0.0000	0.001	18.641	1087.80
2	0	0	4	0.0000	0.001	18.641	1087.80
2	0	0	4	0.0000	0.001	17.464	734.10
2	0	0	4	0.0000	0.001	17.464	734.10
2	0	0	4	0.0000	0.001	17.464	734.10
2	0	0	4	0.0000	0.001	17.910	868.20
2	0	0	4	0.0000	0.010	10.000	0.00
2	0	0	4	0.0000	0.000	0.000	0.00
2	0	0	4	0.0000	0.001	17.046	608.40
2	0	0	4	0.0000	0.001	17.028	603.00
2	0	0	4	0.0000	0.010	10.000	0.00
2	0	0	4	0.0000	0.000	0.000	0.00
2	0	0	4	0.0000	0.010	10.000	0.00
2	0	0	4	0.0000	0.000	0.000	0.00
2	0	0	4	0.0000	0.010	10.000	0.00
2	0	0	4	0.0000	0.000	0.000	0.00
2	0	0	4	0.0000	0.000	0.000	0.00
2	0	0	4	0.0000	0.001	17.977	888.20
2	0	0	4	0.0000	0.001	17.977	888.20
2	0	0	4	0.0000	0.001	17.977	888.20
2	0	0	4	0.0000	0.001	17.977	888.20
2	0	0	4	0.0000	0.001	17.977	888.20
2	0	0	4	0.0000	0.001	17.977	888.20
2	0	0	4	0.0000	0.001	17.495	743.25
2	0	0	4	0.0000	0.001	17.495	743.25
2	0	0	4	0.0000	0.001	17.495	743.25
2	0	0	4	0.0000	0.001	18.448	1029.75
2	0	0	4	0.0000	0.000	0.000	0.00
2	0	0	4	0.0000	0.010	10.000	0.00
2	0	0	4	0.0000	0.010	10.000	0.00
2	0	0	4	0.0000	0.000	0.000	0.00
2	0	0	4	0.0000	0.010	10.000	0.00
2	0	0	4	0.0000	0.010	10.000	0.00
2	0	0	4	0.0000	0.010	10.000	0.00
2	0	0	4	0.0000	0.000	0.000	0.00
2	0	0	4	0.0000	0.010	10.000	0.00
2	0	0	4	0.0000	0.010	10.000	0.00
2	0	0	4	0.0000	0.000	0.000	0.00
2	0	0	4	0.0000	0.000	0.000	0.00
2	0	0	4	0.0000	0.002	27.494	1187.70
2	0	0	4	0.0000	0.002	27.494	1187.70
2	0	0	4	0.0000	0.002	27.494	1187.70
2	0	0	4	0.0000	0.010	10.000	0.00
2	0	0	4	0.0000	0.010	10.000	0.00
2	0	0	4	0.0000	0.010	10.000	0.00
2	0	0	4	0.0000	0.010	10.000	0.00
2	0	0	4	0.0000	0.000	0.000	0.00
2	0	0	4	0.0000	0.010	10.000	0.00
2	0	0	4	0.0000	0.010	10.000	0.00
2	0	0	4	0.0000	0.000	0.000	0.00
2	0	0	4	0.0000	0.001	16.989	724.99
2	0	0	4	0.0000	0.001	17.394	850.01
2	0	0	4	0.0000	0.010	10.000	0.00
2	0	0	4	0.0000	0.010	10.000	0.00
2	0	0	4	0.0000	0.010	10.000	0.00
2	0	0	4	0.0000	0.010	10.000	0.00
2	0	0	4	0.0000	0.010	10.000	0.00
2	0	0	4	0.0000	0.010	10.000	0.00
2	0	0	4	0.0000	0.010	10.000	0.00
2	0	0	4	0.0000	0.000	0.000	0.00
2	0	0	4	0.0000	0.010	10.000	0.00
2	0	0	4	0.0000	0.010	10.000	0.00
2	0	0	4	0.0000	0.010	10.000	0.00
2	0	0	4	0.0000	0.010	10.000	0.00
2	0	0	4	0.0000	0.010	10.000	0.00
2	0	0	4	0.0000	0.010	10.000	0.00
2	0	0	4	0.0000	0.002	17.268	236.16
2	0	0	4	0.0000	0.002	17.268	1398.51
2	0	0	4	0.0000	0.000	0.000	0.00
2	0	0	4	0.0000	0.000	0.000	0.00
2	0	0	4	0.0000	0.010	10.000	0.00
2	0	0	4	0.0000	0.010	10.000	0.00
2	0	0	4	0.0000	0.000	0.000	0.00
2	0	0	4	0.0000	0.000	0.000	0.00
2	0	0	4	0.0000	0.000	0.000	0.00
2	0	0	4	0.0000	0.010	10.000	0.00
2	0	0	4	0.0000	0.001	16.033	630.00
2	0	0	4	0.0000	0.001	16.033	630.00
2	0	0	4	0.0000	0.001	16.126	660.00
2	0	0	4	0.0000	0.010	10.000	0.00
2	0	0	4	0.0000	0.010	10.000	0.00
2	0	0	4	0.0000	0.000	0.000	0.00
2	0	0	4	0.0000	0.010	10.000	0.00
2	0	0	4	0.0000	0.010	10.000	0.00
2	0	0	4	0.0000	0.000	0.000	0.00
2	0	0	4	0.0000	0.010	10.000	0.00
2	0	0	4	0.0000	0.000	0.000	0.00
2	0	0	4	0.0000	0.010	10.000	0.00
2	0	0	4	0.0000	0.000	0.000	0.00
2	0	0	4	0.0000	0.000	0.000	0.00
2	0	0	4	0.0000	0.002	26.597	1001.59
2	0	0	4	0.0000	0.002	26.597	1001.59
2	0	0	4	0.0000	0.002	26.597	1001.59
2	0	0	4	0.0000	0.010	10.000	0.00
2	0	0	4	0.0000	0.010	10.000	0.00
2	0	0	4	0.0000	0.010	10.000	0.00
2	0	0	4	0.0000	0.001	17.482	877.08
2	0	0	4	0.0000	0.010	10.000	0.00
2	0	0	4	0.0000	0.001	17.482	877.08
2	0	0	4	0.0000	0.010	10.000	0.00
2	0	0	4	0.0000	0.001	17.482	877.08
2	0	0	4	0.0000	0.010	10.000	0.00
2	0	0	4	0.0000	0.001	17.482	877.08
2	0	0	4	0.0000	0.010	10.000	0.00
2	0	0	4	0.0000	0.001	17.482	877.08
2	0	0	4	0.0000	0.010	10.000	0.00
2	0	0	4	0.0000	0.001	17.482	877.08
2	0	0	4	0.0000	0.010	10.000	0.00
2	0	0	4	0.0000	0.000	0.000	0.00
2	0	0	4	0.0000	0.010	10.000	0.00
2	0	0	4	0.0000	0.000	0.000	0.00
2	0	0	4	0.0000	0.010	10.000	0.00
2	0	0	4	0.0000	0.010	10.000	0.00
2	0	0	4	0.0000	0.010	10.000	0.00
2	0	0	4	0.0000	0.010	10.000	0.00
2	0	0	4	0.0000	0.010	10.000	0.00
2	0	0	4	0.0000	0.010	10.000	0.00
2	0	0	4	0.0000	0.000	0.000	0.00
2	0	0	4	0.0000	0.000	0.000	0.00
2	0	0	4	0.0000	0.000	0.000	0.00
2	0	0	4	0.0000	0.010	10.000	0.00
2	0	0	4	0.0000	0.000	0.000	0.00
2	0	0	4	0.0000	0.000	0.000	0.00
2	0	0	4	0.0000	0.000	0.000	0.00
2	0	0	4	0.0000	0.010	10.000	0.00
2	0	0	4	0.0000	0.010	10.000	0.00
2	0	0	4	0.0000	0.002	19.197	601.95
2	0	0	4	0.0000	0.010	10.000	0.00
2	0	0	4	0.0000	0.002	19.693	734.10
2	0	0	4	0.0000	0.010	10.000	0.00
2	0	0	4	0.0000	0.002	21.704	1365.86
2	0	0	4	0.0000	0.010	10.000	0.00
2	0	0	4	0.0000	0.000	0.000	0.00
2	0	0	4	0.0000	0.010	10.000	0.00
2	0	0	4	0.0000	0.010	10.000	0.00
2	0	0	4	0.0000	0.010	10.000	0.00
2	0	0	4	0.0000	0.000	0.000	0.00
2	0	0	4	0.0000	0.000	0.000	0.00
2	0	0	4	0.0000	0.000	0.000	0.00
2	0	0	4	0.0000	0.000	0.000	0.00
2	0	0	4	0.0000	0.000	0.000	0.00
2	0	0	4	0.0000	0.000	0.000	0.00
2	0	0	4	0.0000	0.000	0.000	0.00
2	0	0	4	0.0000	0.000	0.000	0.00
2	0	0	4	0.0000	0.010	10.000	0.00
2	0	0	4	0.0000	0.000	0.000	0.00
2	0	0	4	0.0000	0.000	0.000	0.00
2	0	0	4	0.0000	0.000	0.000	0.00
2	0	0	4	0.0000	0.010	10.000	0.00
2	0	0	4	0.0000	0.010	10.000	0.00
2	0	0	4	0.0000	0.000	0.000	0.00
2	0	0	4	0.0000	0.000	0.000	0.00
2	0	0	4	0.0000	0.000	0.000	0.00
2	0	0	4	0.0000	0.000	0.000	0.00
2	0	0	4	0.0000	0.000	0.000	0.00
2	0	0	4	0.0000	0.000	0.000	0.00
2	0	0	4	0.0000	0.000	0.000	0.00
2	0	0	4	0.0000	0.000	0.000	0.00
2	0	0	4	0.0000	0.000	0.000	0.00
2	0	0	4	0.0000	0.000	0.000	0.00
2	0	0	4	0.0000	0.000	0.000	0.00
2	0	0	4	0.0000	0.000	0.000	0.00
2	0	0	4	0.0000	0.010	10.000	0.00
2	0	0	4	0.0000	0.010	10.000	0.00
2	0	0	4	0.0000	0.000	0.000	0.00
2	0	0	4	0.0000	0.000	0.000	0.00
2	0	0	4	0.0000	0.000	0.000	0.00
2	0	0	4	0.0000	0.000	0.000	0.00
2	0	0	4	0.0000	0.010	10.000	0.00
2	0	0	4	0.0000	0.000	0.000	0.00
2	0	0	4	0.0000	0.010	10.000	0.00
...
];

%% branch data
mpc.branch = [
1001	1064	0.005240	0.035800	0.00609	221.00	0.00	0.00	0.00000	0.000	1	0.00	0.00	44.91	12.11	-44.79	-11.78	0	0	0	0
1001	1064	0.005240	0.035800	0.00609	221.00	0.00	0.00	0.00000	0.000	1	0.00	0.00	44.91	12.11	-44.79	-11.78	0	0	0	0
1001	1071	0.004350	0.028080	0.00536	221.00	0.00	0.00	0.00000	0.000	1	0.00	0.00	-58.47	-15.05	58.65	15.70	0	0	0	0
1001	1071	0.004350	0.028080	0.00536	221.00	0.00	0.00	0.00000	0.000	1	0.00	0.00	-58.47	-15.05	58.65	15.70	0	0	0	0
1002	1007	0.077760	0.466930	0.06336	98.00	0.00	0.00	0.00000	0.000	1	0.00	0.00	-21.82	0.51	22.19	-5.03	0	0	0	0
1010	1002	0.055520	0.135700	0.01777	98.00	0.00	0.00	0.00000	0.000	1	0.00	0.00	-1.70	3.03	1.71	-4.88	0	0	0	0
1004	1003	0.004500	0.115820	0.00000	250.00	0.00	0.00	1.00000	0.000	1	0.00	0.00	-127.64	9.16	128.40	10.41	0	0	0	0
1004	1003	0.004500	0.115820	0.00000	250.00	0.00	0.00	1.00000	0.000	1	0.00	0.00	-127.64	9.16	128.40	10.41	0	0	0	0
1004	1003	0.004500	0.115820	0.00000	250.00	0.00	0.00	1.00000	0.000	1	0.00	0.00	-127.64	9.16	128.40	10.41	0	0	0	0
1022	1003	0.004850	0.020120	0.00341	221.00	0.00	0.00	0.00000	0.000	1	0.00	0.00	101.38	8.66	-100.88	-6.90	0	0	0	0
1022	1003	0.004850	0.020120	0.00341	221.00	0.00	0.00	0.00000	0.000	1	0.00	0.00	101.38	8.66	-100.88	-6.90	0	0	0	0
1055	1003	0.015740	0.037820	0.00513	98.00	0.00	0.00	0.00000	0.000	1	0.00	0.00	46.20	4.67	-45.86	-4.36	0	0	0	0
1055	1003	0.015740	0.037820	0.00513	98.00	0.00	0.00	0.00000	0.000	1	0.00	0.00	46.20	4.67	-45.86	-4.36	0	0	0	0
1055	1003	0.015740	0.037820	0.00513	98.00	0.00	0.00	0.00000	0.000	1	0.00	0.00	46.20	4.67	-45.86	-4.36	0	0	0	0
1055	1003	0.015740	0.037820	0.00513	98.00	0.00	0.00	0.00000	0.000	1	0.00	0.00	46.20	4.67	-45.86	-4.36	0	0	0	0
1004	3133	0.004200	0.030000	0.05500	523.00	0.00	0.00	0.00000	0.000	1	0.00	0.00	270.59	8.73	-267.41	8.71	0	0	0	0
1004	3133	0.004200	0.030000	0.05500	523.00	0.00	0.00	0.00000	0.000	1	0.00	0.00	270.59	8.73	-267.41	8.71	0	0	0	0
1006	1005	0.006020	0.147070	0.00000	42.00	0.00	0.00	1.00000	0.000	1	0.00	0.00	12.86	3.51	-12.85	-3.25	0	0	0	0
1006	1005	0.006020	0.147070	0.00000	42.00	0.00	0.00	1.00000	0.000	1	0.00	0.00	12.86	3.51	-12.85	-3.25	0	0	0	0
1025	1005	0.018420	0.082100	0.01204	149.00	0.00	0.00	0.00000	0.000	1	0.00	0.00	-75.69	10.28	76.80	-6.53	0	0	0	0
1025	1005	0.018420	0.082100	0.01204	149.00	0.00	0.00	0.00000	0.000	1	0.00	0.00	-75.69	10.28	76.80	-6.53	0	0	0	0
1025	1005	0.018420	0.082100	0.01204	149.00	0.00	0.00	0.00000	0.000	1	0.00	0.00	-75.69	10.28	76.80	-6.53	0	0	0	0
1025	1005	0.018420	0.082100	0.01204	149.00	0.00	0.00	0.00000	0.000	1	0.00	0.00	-75.69	10.28	76.80	-6.53	0	0	0	0
1025	1005	0.018420	0.082100	0.01204	149.00	0.00	0.00	0.00000	0.000	1	0.00	0.00	-75.69	10.28	76.80	-6.53	0	0	0	0
1005	1061	0.005990	0.024840	0.00422	221.00	0.00	0.00	0.00000	0.000	1	0.00	0.00	78.72	-41.29	-78.24	42.85	0	0	0	0
1005	1061	0.005990	0.024840	0.00422	221.00	0.00	0.00	0.00000	0.000	1	0.00	0.00	78.72	-41.29	-78.24	42.85	0	0	0	0
1067	1005	0.017110	0.041810	0.00548	98.00	0.00	0.00	0.00000	0.000	1	0.00	0.00	47.29	-10.63	-46.88	11.07	0	0	0	0
1067	1005	0.017110	0.041810	0.00548	98.00	0.00	0.00	0.00000	0.000	1	0.00	0.00	47.29	-10.63	-46.88	11.07	0	0	0	0
1067	1005	0.017110	0.041810	0.00548	98.00	0.00	0.00	0.00000	0.000	1	0.00	0.00	47.29	-10.63	-46.88	11.07	0	0	0	0
1067	1005	0.017110	0.041810	0.00548	98.00	0.00	0.00	0.00000	0.000	1	0.00	0.00	47.29	-10.63	-46.88	11.07	0	0	0	0
1067	1005	0.017110	0.041810	0.00548	98.00	0.00	0.00	0.00000	0.000	1	0.00	0.00	47.29	-10.63	-46.88	11.07	0	0	0	0
1067	1005	0.017110	0.041810	0.00548	98.00	0.00	0.00	0.00000	0.000	1	0.00	0.00	47.29	-10.63	-46.88	11.07	0	0	0	0
1067	1005	0.017110	0.041810	0.00548	98.00	0.00	0.00	0.00000	0.000	1	0.00	0.00	47.29	-10.63	-46.88	11.07	0	0	0	0
1067	1005	0.017110	0.041810	0.00548	98.00	0.00	0.00	0.00000	0.000	1	0.00	0.00	47.29	-10.63	-46.88	11.07	0	0	0	0
1067	1005	0.017110	0.041810	0.00548	98.00	0.00	0.00	0.00000	0.000	1	0.00	0.00	47.29	-10.63	-46.88	11.07	0	0	0	0
1067	1005	0.017110	0.041810	0.00548	98.00	0.00	0.00	0.00000	0.000	1	0.00	0.00	47.29	-10.63	-46.88	11.07	0	0	0	0
1067	1005	0.017110	0.041810	0.00548	98.00	0.00	0.00	0.00000	0.000	1	0.00	0.00	47.29	-10.63	-46.88	11.07	0	0	0	0
1007	1015	0.062240	0.373750	0.05072	98.00	0.00	0.00	0.00000	0.000	1	0.00	0.00	20.71	-5.38	-20.46	1.54	0	0	0	0
1031	1007	0.048030	0.274340	0.04123	98.00	0.00	0.00	0.00000	0.000	1	0.00	0.00	-53.48	1.06	54.85	2.53	0	0	0	0
1031	1007	0.048030	0.274340	0.04123	98.00	0.00	0.00	0.00000	0.000	1	0.00	0.00	-53.48	1.06	54.85	2.53	0	0	0	0
1031	1007	0.048030	0.274340	0.04123	98.00	0.00	0.00	0.00000	0.000	1	0.00	0.00	-53.48	1.06	54.85	2.53	0	0	0	0
1009	1008	0.004550	0.094710	0.00000	120.00	0.00	0.00	1.00000	0.000	1	0.00	0.00	61.87	12.71	-61.69	-8.93	0	0	0	0
1009	1008	0.004550	0.094710	0.00000	120.00	0.00	0.00	1.00000	0.000	0	0.00	0.00	0.00	0.00	0.00	0.00	0	0	0	0
1008	1032	0.045010	0.110020	0.01441	98.00	0.00	0.00	0.00000	0.000	1	0.00	0.00	32.23	9.59	-31.70	-9.66	0	0	0	0
1008	1032	0.045010	0.110020	0.01441	98.00	0.00	0.00	0.00000	0.000	1	0.00	0.00	32.23	9.59	-31.70	-9.66	0	0	0	0
1008	1032	0.045010	0.110020	0.01441	98.00	0.00	0.00	0.00000	0.000	1	0.00	0.00	32.23	9.59	-31.70	-9.66	0	0	0	0
1008	1032	0.045010	0.110020	0.01441	98.00	0.00	0.00	0.00000	0.000	0	0.00	0.00	0.00	0.00	0.00	0.00	0	0	0	0
1008	1069	0.008300	0.036280	0.00553	149.00	0.00	0.00	0.00000	0.000	1	0.00	0.00	-35.01	-19.84	35.15	19.90	0	0	0	0
1008	1069	0.008300	0.036280	0.00553	149.00	0.00	0.00	0.00000	0.000	0	0.00	0.00	0.00	0.00	0.00	0.00	0	0	0	0
1011	1010	0.007210	0.324600	0.00000	46.00	0.00	0.00	1.00000	0.000	1	0.00	0.00	10.00	0.00	-9.99	0.31	0	0	0	0
1010	1015	0.047030	0.282430	0.03833	98.00	0.00	0.00	0.00000	0.000	1	0.00	0.00	-10.60	-0.09	10.66	-3.67	0	0	0	0
1010	1030	0.061600	0.369900	0.05020	98.00	0.00	0.00	0.00000	0.000	1	0.00	0.00	22.30	1.02	-22.00	-4.44	0	0	0	0
1012	1087	0.049340	0.204690	0.03473	149.00	0.00	0.00	0.00000	0.000	1	0.00	0.00	-62.13	2.83	64.17	2.30	0	0	0	0
1012	1087	0.049340	0.204690	0.03473	149.00	0.00	0.00	0.00000	0.000	1	0.00	0.00	-62.13	2.83	64.17	2.30	0	0	0	0
1012	1087	0.049340	0.204690	0.03473	149.00	0.00	0.00	0.00000	0.000	1	0.00	0.00	-62.13	2.83	64.17	2.30	0	0	0	0
3051	1012	0.057100	0.249770	0.03804	149.00	0.00	0.00	0.00000	0.000	1	0.00	0.00	-58.57	6.56	60.83	-0.15	0	0	0	0
3051	1012	0.057100	0.249770	0.03804	149.00	0.00	0.00	0.00000	0.000	1	0.00	0.00	-58.57	6.56	60.83	-0.15	0	0	0	0
3051	1012	0.057100	0.249770	0.03804	149.00	0.00	0.00	0.00000	0.000	1	0.00	0.00	-58.57	6.56	60.83	-0.15	0	0	0	0
1013	1031	0.045090	0.270780	0.03675	98.00	0.00	0.00	0.00000	0.000	1	0.00	0.00	-48.36	4.88	49.46	-1.93	0	0	0	0
1013	1031	0.045090	0.270780	0.03675	98.00	0.00	0.00	0.00000	0.000	1	0.00	0.00	-48.36	4.88	49.46	-1.93	0	0	0	0
1013	1031	0.045090	0.270780	0.03675	98.00	0.00	0.00	0.00000	0.000	1	0.00	0.00	-48.36	4.88	49.46	-1.93	0	0	0	0
1047	1013	0.009470	0.061170	0.01167	221.00	0.00	0.00	0.00000	0.000	1	0.00	0.00	-102.14	14.31	103.18	-8.76	0	0	0	0
1086	1013	0.079000	0.193110	0.02529	98.00	0.00	0.00	0.00000	0.000	1	0.00	0.00	-3.61	12.00	3.76	-14.17	0	0	0	0
1014	1047	0.035660	0.147940	0.02510	149.00	0.00	0.00	0.00000	0.000	1	0.00	0.00	46.99	-7.50	-46.17	8.43	0	0	0	0
1014	1047	0.035660	0.147940	0.02510	149.00	0.00	0.00	0.00000	0.000	1	0.00	0.00	46.99	-7.50	-46.17	8.43	0	0	0	0
1014	1083	0.041050	0.182930	0.02682	149.00	0.00	0.00	0.00000	0.000	1	0.00	0.00	-48.43	7.19	49.44	-5.35	0	0	0	0
1014	1083	0.041050	0.182930	0.02682	149.00	0.00	0.00	0.00000	0.000	1	0.00	0.00	-48.43	7.19	49.44	-5.35	0	0	0	0
1016	1034	0.018280	0.109760	0.01489	98.00	0.00	0.00	0.00000	0.000	1	0.00	0.00	53.72	-6.43	-53.19	8.15	0	0	0	0
1016	1034	0.018280	0.109760	0.01489	98.00	0.00	0.00	0.00000	0.000	1	0.00	0.00	53.72	-6.43	-53.19	8.15	0	0	0	0
1016	1034	0.018280	0.109760	0.01489	98.00	0.00	0.00	0.00000	0.000	1	0.00	0.00	53.72	-6.43	-53.19	8.15	0	0	0	0
1016	1034	0.018280	0.109760	0.01489	98.00	0.00	0.00	0.00000	0.000	1	0.00	0.00	53.72	-6.43	-53.19	8.15	0	0	0	0
1016	1034	0.018280	0.109760	0.01489	98.00	0.00	0.00	0.00000	0.000	1	0.00	0.00	53.72	-6.43	-53.19	8.15	0	0	0	0
1016	1034	0.018280	0.109760	0.01489	98.00	0.00	0.00	0.00000	0.000	1	0.00	0.00	53.72	-6.43	-53.19	8.15	0	0	0	0
1016	1034	0.018280	0.109760	0.01489	98.00	0.00	0.00	0.00000	0.000	1	0.00	0.00	53.72	-6.43	-53.19	8.15	0	0	0	0
1016	1034	0.018280	0.109760	0.01489	98.00	0.00	0.00	0.00000	0.000	1	0.00	0.00	53.72	-6.43	-53.19	8.15	0	0	0	0
1016	1034	0.018280	0.109760	0.01489	98.00	0.00	0.00	0.00000	0.000	1	0.00	0.00	53.72	-6.43	-53.19	8.15	0	0	0	0
1016	1034	0.018280	0.109760	0.01489	98.00	0.00	0.00	0.00000	0.000	1	0.00	0.00	53.72	-6.43	-53.19	8.15	0	0	0	0
1068	1016	0.027730	0.158370	0.02380	98.00	0.00	0.00	0.00000	0.000	1	0.00	0.00	-33.14	-12.68	33.50	12.44	0	0	0	0
1018	1017	0.032270	0.078870	0.01033	98.00	0.00	0.00	0.00000	0.000	1	0.00	0.00	36.22	3.16	-35.77	-3.04	0	0	0	0
1018	1017	0.032270	0.078870	0.01033	98.00	0.00	0.00	0.00000	0.000	1	0.00	0.00	36.22	3.16	-35.77	-3.04	0	0	0	0
1018	1017	0.032270	0.078870	0.01033	98.00	0.00	0.00	0.00000	0.000	1	0.00	0.00	36.22	3.16	-35.77	-3.04	0	0	0	0
1017	1029	0.032440	0.141880	0.02161	149.00	0.00	0.00	0.00000	0.000	1	0.00	0.00	16.56	-29.10	-16.19	28.64	0	0	0	0
1037	1017	0.007520	0.033520	0.00491	221.00	0.00	0.00	0.00000	0.000	1	0.00	0.00	-106.40	3.04	107.33	0.67	0	0	0	0
1037	1017	0.007520	0.033520	0.00491	221.00	0.00	0.00	0.00000	0.000	1	0.00	0.00	-106.40	3.04	107.33	0.67	0	0	0	0
1037	1017	0.007520	0.033520	0.00491	221.00	0.00	0.00	0.00000	0.000	1	0.00	0.00	-106.40	3.04	107.33	0.67	0	0	0	0
1037	1017	0.007520	0.033520	0.00491	221.00	0.00	0.00	0.00000	0.000	1	0.00	0.00	-106.40	3.04	107.33	0.67	0	0	0	0
1047	1017	0.036000	0.156000	0.02400	150.00	0.00	0.00	0.00000	0.000	1	0.00	0.00	74.56	0.57	-72.50	6.07	0	0	0	0
1047	1017	0.036000	0.156000	0.02400	150.00	0.00	0.00	0.00000	0.000	1	0.00	0.00	74.56	0.57	-72.50	6.07	0	0	0	0
1047	1017	0.036000	0.156000	0.02400	150.00	0.00	0.00	0.00000	0.000	1	0.00	0.00	74.56	0.57	-72.50	6.07	0	0	0	0
1047	1017	0.036000	0.156000	0.02400	150.00	0.00	0.00	0.00000	0.000	1	0.00	0.00	74.56	0.57	-72.50	6.07	0	0	0	0
1047	1017	0.036000	0.156000	0.02400	150.00	0.00	0.00	0.00000	0.000	1	0.00	0.00	74.56	0.57	-72.50	6.07	0	0	0	0
1024	1018	0.010940	0.065720	0.00892	98.00	0.00	0.00	0.00000	0.000	1	0.00	0.00	36.40	3.22	-36.25	-3.17	0	0	0	0
1024	1018	0.010940	0.065720	0.00892	98.00	0.00	0.00	0.00000	0.000	1	0.00	0.00	36.40	3.22	-36.25	-3.17	0	0	0	0
1024	1018	0.010940	0.065720	0.00892	98.00	0.00	0.00	0.00000	0.000	1	0.00	0.00	36.40	3.22	-36.25	-3.17	0	0	0	0
1019	1040	0.049780	0.206510	0.03504	149.00	0.00	0.00	0.00000	0.000	1	0.00	0.00	-70.18	4.77	72.83	2.84	0	0	0	0
1019	1040	0.049780	0.206510	0.03504	149.00	0.00	0.00	0.00000	0.000	1	0.00	0.00	-70.18	4.77	72.83	2.84	0	0	0	0
1019	1040	0.049780	0.206510	0.03504	149.00	0.00	0.00	0.00000	0.000	1	0.00	0.00	-70.18	4.77	72.83	2.84	0	0	0	0
1019	1040	0.049780	0.206510	0.03504	149.00	0.00	0.00	0.00000	0.000	1	0.00	0.00	-70.18	4.77	72.83	2.84	0	0	0	0
1019	1040	0.049780	0.206510	0.03504	149.00	0.00	0.00	0.00000	0.000	1	0.00	0.00	-70.18	4.77	72.83	2.84	0	0	0	0
1019	1040	0.049780	0.206510	0.03504	149.00	0.00	0.00	0.00000	0.000	1	0.00	0.00	-70.18	4.77	72.83	2.84	0	0	0	0
1019	1040	0.049780	0.206510	0.03504	149.00	0.00	0.00	0.00000	0.000	1	0.00	0.00	-70.18	4.77	72.83	2.84	0	0	0	0
1019	1045	0.015220	0.037200	0.00487	221.00	0.00	0.00	0.00000	0.000	1	0.00	0.00	83.04	8.86	-81.90	-6.52	0	0	0	0
1019	1045	0.015220	0.037200	0.00487	221.00	0.00	0.00	0.00000	0.000	1	0.00	0.00	83.04	8.86	-81.90	-6.52	0	0	0	0
1019	1071	0.004400	0.028000	0.00540	225.00	0.00	0.00	0.00000	0.000	1	0.00	0.00	93.72	24.10	-93.28	-21.79	0	0	0	0
1071	1019	0.004400	0.028000	0.00540	225.00	0.00	0.00	0.00000	0.000	1	0.00	0.00	-93.28	-21.79	93.72	24.10	0	0	0	0
1071	1019	0.004400	0.028000	0.00540	225.00	0.00	0.00	0.00000	0.000	1	0.00	0.00	-93.28	-21.79	93.72	24.10	0	0	0	0
1019	1084	0.030000	0.160000	0.02500	220.00	0.00	0.00	0.00000	0.000	1	0.00	0.00	-36.62	-7.59	37.06	7.57	0	0	0	0
1019	1084	0.030000	0.160000	0.02500	220.00	0.00	0.00	0.00000	0.000	0	0.00	0.00	0.00	0.00	0.00	0.00	0	0	0	0
1021	1020	0.003270	0.078120	0.00000	250.00	0.00	0.00	1.00000	0.000	1	0.00	0.00	74.81	19.67	-74.62	-15.00	0	0	0	0
1021	1020	0.003270	0.078120	0.00000	250.00	0.00	0.00	1.00000	0.000	1	0.00	0.00	74.81	19.67	-74.62	-15.00	0	0	0	0
1025	1020	0.008280	0.034340	0.00583	149.00	0.00	0.00	0.00000	0.000	1	0.00	0.00	78.54	-9.06	-78.01	10.70	0	0	0	0
1025	1020	0.008280	0.034340	0.00583	149.00	0.00	0.00	0.00000	0.000	1	0.00	0.00	78.54	-9.06	-78.01	10.70	0	0	0	0
1025	1020	0.008280	0.034340	0.00583	149.00	0.00	0.00	0.00000	0.000	1	0.00	0.00	78.54	-9.06	-78.01	10.70	0	0	0	0
1025	1020	0.008280	0.034340	0.00583	149.00	0.00	0.00	0.00000	0.000	1	0.00	0.00	78.54	-9.06	-78.01	10.70	0	0	0	0
...